559
Pt Pt 1 1
Pt 5.88666 -11.7733 0
Pt 7.84889 -9.81111 0
Pt 9.81111 -7.84889 0
Pt 11.7733 -5.88666 0
Pt 1.96222 -11.7733 0
Pt 3.92444 -9.81111 0
Pt 5.88666 -7.84889 0
Pt 7.84889 -5.88666 0
Pt 9.81111 -3.92444 0
Pt 11.7733 -1.96222 0
Pt -1.96222 -11.7733 0
Pt 6.21725e-15 -9.81111 0
Pt 1.96222 -7.84889 0
Pt 3.92444 -5.88666 0
Pt 5.88666 -3.92444 0
Pt 7.84889 -1.96222 0
Pt 9.81111 -4.44089e-15 0
Pt 11.7733 1.96222 0
Pt -5.88666 -11.7733 0
Pt -3.92444 -9.81111 0
Pt -1.96222 -7.84889 0
Pt 6.21725e-15 -5.88666 0
Pt 1.96222 -3.92444 0
Pt 3.92444 -1.96222 0
Pt 5.88666 -6.21725e-15 0
Pt 7.84889 1.96222 0
Pt 9.81111 3.92444 0
Pt 11.7733 5.88666 0
Pt -7.84889 -9.81111 0
Pt -5.88666 -7.84889 0
Pt -3.92444 -5.88666 0
Pt -1.96222 -3.92444 0
Pt 6.21725e-15 -1.96222 0
Pt 1.96222 -4.996e-15 0
Pt 3.92444 1.96222 0
Pt 5.88666 3.92444 0
Pt 7.84889 5.88666 0
Pt 9.81111 7.84889 0
Pt -9.81111 -7.84889 0
Pt -7.84889 -5.88666 0
Pt -5.88666 -3.92444 0
Pt -3.92444 -1.96222 0
Pt -1.96222 -5.10703e-15 0
Pt 6.32827e-15 1.96222 0
Pt 1.96222 3.92444 0
Pt 3.92444 5.88666 0
Pt 5.88666 7.84889 0
Pt 7.84889 9.81111 0
Pt -11.7733 -5.88666 0
Pt -9.81111 -3.92444 0
Pt -7.84889 -1.96222 0
Pt -5.88666 -6.21725e-15 0
Pt -3.92444 1.96222 0
Pt -1.96222 3.92444 0
Pt 6.21725e-15 5.88666 0
Pt 1.96222 7.84889 0
Pt 3.92444 9.81111 0
Pt 5.88666 11.7733 0
Pt -11.7733 -1.96222 0
Pt -9.81111 -4.44089e-15 0
Pt -7.84889 1.96222 0
Pt -5.88666 3.92444 0
Pt -3.92444 5.88666 0
Pt -1.96222 7.84889 0
Pt 6.21725e-15 9.81111 0
Pt 1.96222 11.7733 0
Pt -11.7733 1.96222 0
Pt -9.81111 3.92444 0
Pt -7.84889 5.88666 0
Pt -5.88666 7.84889 0
Pt -3.92444 9.81111 0
Pt -1.96222 11.7733 0
Pt -11.7733 5.88666 0
Pt -9.81111 7.84889 0
Pt -7.84889 9.81111 0
Pt -5.88666 11.7733 0
Pt 3.92444 -11.7733 1.96222
Pt 5.88666 -9.81111 1.96222
Pt 7.84889 -7.84889 1.96222
Pt 9.81111 -5.88666 1.96222
Pt 11.7733 -3.92444 1.96222
Pt -2.66454e-15 -11.7733 1.96222
Pt 1.96222 -9.81111 1.96222
Pt 3.92444 -7.84889 1.96222
Pt 5.88666 -5.88666 1.96222
Pt 7.84889 -3.92444 1.96222
Pt 9.81111 -1.96222 1.96222
Pt 11.7733 -8.88178e-16 1.96222
Pt -3.92444 -11.7733 1.96222
Pt -1.96222 -9.81111 1.96222
Pt -2.22045e-15 -7.84889 1.96222
Pt 1.96222 -5.88666 1.96222
Pt 3.92444 -3.92444 1.96222
Pt 5.88666 -1.96222 1.96222
Pt 7.84889 -3.10862e-15 1.96222
Pt 9.81111 1.96222 1.96222
Pt 11.7733 3.92444 1.96222
Pt -5.88666 -9.81111 1.96222
Pt -3.92444 -7.84889 1.96222
Pt -1.96222 -5.88666 1.96222
Pt -2.44249e-15 -3.92444 1.96222
Pt 1.96222 -1.96222 1.96222
Pt 3.92444 -2.44249e-15 1.96222
Pt 5.88666 1.96222 1.96222
Pt 7.84889 3.92444 1.96222
Pt 9.81111 5.88666 1.96222
Pt -7.84889 -7.84889 1.96222
Pt -5.88666 -5.88666 1.96222
Pt -3.92444 -3.92444 1.96222
Pt -1.96222 -1.96222 1.96222
Pt -2.51215e-15 -2.51215e-15 1.96222
Pt 1.96222 1.96222 1.96222
Pt 3.92444 3.92444 1.96222
Pt 5.88666 5.88666 1.96222
Pt 7.84889 7.84889 1.96222
Pt -9.81111 -5.88666 1.96222
Pt -7.84889 -3.92444 1.96222
Pt -5.88666 -1.96222 1.96222
Pt -3.92444 -2.44249e-15 1.96222
Pt -1.96222 1.96222 1.96222
Pt -2.44249e-15 3.92444 1.96222
Pt 1.96222 5.88666 1.96222
Pt 3.92444 7.84889 1.96222
Pt 5.88666 9.81111 1.96222
Pt -11.7733 -3.92444 1.96222
Pt -9.81111 -1.96222 1.96222
Pt -7.84889 -3.10862e-15 1.96222
Pt -5.88666 1.96222 1.96222
Pt -3.92444 3.92444 1.96222
Pt -1.96222 5.88666 1.96222
Pt -2.22045e-15 7.84889 1.96222
Pt 1.96222 9.81111 1.96222
Pt 3.92444 11.7733 1.96222
Pt -11.7733 -1.77636e-15 1.96222
Pt -9.81111 1.96222 1.96222
Pt -7.84889 3.92444 1.96222
Pt -5.88666 5.88666 1.96222
Pt -3.92444 7.84889 1.96222
Pt -1.96222 9.81111 1.96222
Pt -1.77636e-15 11.7733 1.96222
Pt -11.7733 3.92444 1.96222
Pt -9.81111 5.88666 1.96222
Pt -7.84889 7.84889 1.96222
Pt -5.88666 9.81111 1.96222
Pt -3.92444 11.7733 1.96222
Pt 1.96222 -11.7733 3.92444
Pt 3.92444 -9.81111 3.92444
Pt 5.88666 -7.84889 3.92444
Pt 7.84889 -5.88666 3.92444
Pt 9.81111 -3.92444 3.92444
Pt 11.7733 -1.96222 3.92444
Pt -1.96222 -11.7733 3.92444
Pt -3.55271e-15 -9.81111 3.92444
Pt 1.96222 -7.84889 3.92444
Pt 3.92444 -5.88666 3.92444
Pt 5.88666 -3.92444 3.92444
Pt 7.84889 -1.96222 3.92444
Pt 9.81111 5.32907e-15 3.92444
Pt 11.7733 1.96222 3.92444
Pt -3.92444 -9.81111 3.92444
Pt -1.96222 -7.84889 3.92444
Pt -3.9968e-15 -5.88666 3.92444
Pt 1.96222 -3.92444 3.92444
Pt 3.92444 -1.96222 3.92444
Pt 5.88666 5.77316e-15 3.92444
Pt 7.84889 1.96222 3.92444
Pt 9.81111 3.92444 3.92444
Pt -5.88666 -7.84889 3.92444
Pt -3.92444 -5.88666 3.92444
Pt -1.96222 -3.92444 3.92444
Pt -3.77476e-15 -1.96222 3.92444
Pt 1.96222 4.996e-15 3.92444
Pt 3.92444 1.96222 3.92444
Pt 5.88666 3.92444 3.92444
Pt 7.84889 5.88666 3.92444
Pt -7.84889 -5.88666 3.92444
Pt -5.88666 -3.92444 3.92444
Pt -3.92444 -1.96222 3.92444
Pt -1.96222 4.996e-15 3.92444
Pt -3.77476e-15 1.96222 3.92444
Pt 1.96222 3.92444 3.92444
Pt 3.92444 5.88666 3.92444
Pt 5.88666 7.84889 3.92444
Pt -9.81111 -3.92444 3.92444
Pt -7.84889 -1.96222 3.92444
Pt -5.88666 5.32907e-15 3.92444
Pt -3.92444 1.96222 3.92444
Pt -1.96222 3.92444 3.92444
Pt -3.55271e-15 5.88666 3.92444
Pt 1.96222 7.84889 3.92444
Pt 3.92444 9.81111 3.92444
Pt -11.7733 -1.96222 3.92444
Pt -9.81111 5.32907e-15 3.92444
Pt -7.84889 1.96222 3.92444
Pt -5.88666 3.92444 3.92444
Pt -3.92444 5.88666 3.92444
Pt -1.96222 7.84889 3.92444
Pt -3.55271e-15 9.81111 3.92444
Pt 1.96222 11.7733 3.92444
Pt -11.7733 1.96222 3.92444
Pt -9.81111 3.92444 3.92444
Pt -7.84889 5.88666 3.92444
Pt -5.88666 7.84889 3.92444
Pt -3.92444 9.81111 3.92444
Pt -1.96222 11.7733 3.92444
Pt -3.55271e-15 -11.7733 5.88666
Pt 1.96222 -9.81111 5.88666
Pt 3.92444 -7.84889 5.88666
Pt 5.88666 -5.88666 5.88666
Pt 7.84889 -3.92444 5.88666
Pt 9.81111 -1.96222 5.88666
Pt 11.7733 -1.77636e-15 5.88666
Pt -1.96222 -9.81111 5.88666
Pt -3.55271e-15 -7.84889 5.88666
Pt 1.96222 -5.88666 5.88666
Pt 3.92444 -3.92444 5.88666
Pt 5.88666 -1.96222 5.88666
Pt 7.84889 0 5.88666
Pt 9.81111 1.96222 5.88666
Pt -3.92444 -7.84889 5.88666
Pt -1.96222 -5.88666 5.88666
Pt -3.77476e-15 -3.92444 5.88666
Pt 1.96222 -1.96222 5.88666
Pt 3.92444 -6.66134e-16 5.88666
Pt 5.88666 1.96222 5.88666
Pt 7.84889 3.92444 5.88666
Pt -5.88666 -5.88666 5.88666
Pt -3.92444 -3.92444 5.88666
Pt -1.96222 -1.96222 5.88666
Pt -3.76822e-15 -1.25607e-15 5.88666
Pt 1.96222 1.96222 5.88666
Pt 3.92444 3.92444 5.88666
Pt 5.88666 5.88666 5.88666
Pt -7.84889 -3.92444 5.88666
Pt -5.88666 -1.96222 5.88666
Pt -3.92444 -6.66134e-16 5.88666
Pt -1.96222 1.96222 5.88666
Pt -3.77476e-15 3.92444 5.88666
Pt 1.96222 5.88666 5.88666
Pt 3.92444 7.84889 5.88666
Pt -9.81111 -1.96222 5.88666
Pt -7.84889 0 5.88666
Pt -5.88666 1.96222 5.88666
Pt -3.92444 3.92444 5.88666
Pt -1.96222 5.88666 5.88666
Pt -3.55271e-15 7.84889 5.88666
Pt 1.96222 9.81111 5.88666
Pt -11.7733 -1.77636e-15 5.88666
Pt -9.81111 1.96222 5.88666
Pt -7.84889 3.92444 5.88666
Pt -5.88666 5.88666 5.88666
Pt -3.92444 7.84889 5.88666
Pt -1.96222 9.81111 5.88666
Pt -3.55271e-15 11.7733 5.88666
Pt 8.88178e-16 -9.81111 7.84889
Pt 1.96222 -7.84889 7.84889
Pt 3.92444 -5.88666 7.84889
Pt 5.88666 -3.92444 7.84889
Pt 7.84889 -1.96222 7.84889
Pt 9.81111 -4.44089e-15 7.84889
Pt -1.96222 -7.84889 7.84889
Pt 0 -5.88666 7.84889
Pt 1.96222 -3.92444 7.84889
Pt 3.92444 -1.96222 7.84889
Pt 5.88666 -4.44089e-15 7.84889
Pt 7.84889 1.96222 7.84889
Pt -3.92444 -5.88666 7.84889
Pt -1.96222 -3.92444 7.84889
Pt 6.66134e-16 -1.96222 7.84889
Pt 1.96222 -4.996e-15 7.84889
Pt 3.92444 1.96222 7.84889
Pt 5.88666 3.92444 7.84889
Pt -5.88666 -3.92444 7.84889
Pt -3.92444 -1.96222 7.84889
Pt -1.96222 -4.996e-15 7.84889
Pt 6.66134e-16 1.96222 7.84889
Pt 1.96222 3.92444 7.84889
Pt 3.92444 5.88666 7.84889
Pt -7.84889 -1.96222 7.84889
Pt -5.88666 -5.32907e-15 7.84889
Pt -3.92444 1.96222 7.84889
Pt -1.96222 3.92444 7.84889
Pt 8.88178e-16 5.88666 7.84889
Pt 1.96222 7.84889 7.84889
Pt -9.81111 -4.44089e-15 7.84889
Pt -7.84889 1.96222 7.84889
Pt -5.88666 3.92444 7.84889
Pt -3.92444 5.88666 7.84889
Pt -1.96222 7.84889 7.84889
Pt 8.88178e-16 9.81111 7.84889
Pt -4.44089e-16 -7.84889 9.81111
Pt 1.96222 -5.88666 9.81111
Pt 3.92444 -3.92444 9.81111
Pt 5.88666 -1.96222 9.81111
Pt 7.84889 -8.88178e-16 9.81111
Pt -1.96222 -5.88666 9.81111
Pt -6.66134e-16 -3.92444 9.81111
Pt 1.96222 -1.96222 9.81111
Pt 3.92444 -8.88178e-16 9.81111
Pt 5.88666 1.96222 9.81111
Pt -3.92444 -3.92444 9.81111
Pt -1.96222 -1.96222 9.81111
Pt -6.28037e-16 -6.28037e-16 9.81111
Pt 1.96222 1.96222 9.81111
Pt 3.92444 3.92444 9.81111
Pt -5.88666 -1.96222 9.81111
Pt -3.92444 -1.11022e-15 9.81111
Pt -1.96222 1.96222 9.81111
Pt -4.44089e-16 3.92444 9.81111
Pt 1.96222 5.88666 9.81111
Pt -7.84889 -4.44089e-16 9.81111
Pt -5.88666 1.96222 9.81111
Pt -3.92444 3.92444 9.81111
Pt -1.96222 5.88666 9.81111
Pt -8.88178e-16 7.84889 9.81111
Pt 8.88178e-16 -5.88666 11.7733
Pt 1.96222 -3.92444 11.7733
Pt 3.92444 -1.96222 11.7733
Pt 5.88666 0 11.7733
Pt -1.96222 -3.92444 11.7733
Pt 1.22125e-15 -1.96222 11.7733
Pt 1.96222 3.33067e-16 11.7733
Pt 3.92444 1.96222 11.7733
Pt -3.92444 -1.96222 11.7733
Pt -1.96222 3.33067e-16 11.7733
Pt 1.22125e-15 1.96222 11.7733
Pt 1.96222 3.92444 11.7733
Pt -5.88666 0 11.7733
Pt -3.92444 1.96222 11.7733
Pt -1.96222 3.92444 11.7733
Pt 8.88178e-16 5.88666 11.7733
Pt 0 -3.92444 13.7355
Pt 1.96222 -1.96222 13.7355
Pt 3.92444 0 13.7355
Pt -1.96222 -1.96222 13.7355
Pt 0 0 13.7355
Pt 1.96222 1.96222 13.7355
Pt -3.92444 0 13.7355
Pt -1.96222 1.96222 13.7355
Pt 0 3.92444 13.7355
Pt 0 -1.96222 15.6978
Pt 1.96222 0 15.6978
Pt -1.96222 0 15.6978
Pt 0 1.96222 15.6978
Pt 3.92444 -11.7733 -1.96222
Pt 5.88666 -9.81111 -1.96222
Pt 7.84889 -7.84889 -1.96222
Pt 9.81111 -5.88666 -1.96222
Pt 11.7733 -3.92444 -1.96222
Pt -2.66454e-15 -11.7733 -1.96222
Pt 1.96222 -9.81111 -1.96222
Pt 3.92444 -7.84889 -1.96222
Pt 5.88666 -5.88666 -1.96222
Pt 7.84889 -3.92444 -1.96222
Pt 9.81111 -1.96222 -1.96222
Pt 11.7733 -8.88178e-16 -1.96222
Pt -3.92444 -11.7733 -1.96222
Pt -1.96222 -9.81111 -1.96222
Pt -2.22045e-15 -7.84889 -1.96222
Pt 1.96222 -5.88666 -1.96222
Pt 3.92444 -3.92444 -1.96222
Pt 5.88666 -1.96222 -1.96222
Pt 7.84889 -3.10862e-15 -1.96222
Pt 9.81111 1.96222 -1.96222
Pt 11.7733 3.92444 -1.96222
Pt -5.88666 -9.81111 -1.96222
Pt -3.92444 -7.84889 -1.96222
Pt -1.96222 -5.88666 -1.96222
Pt -2.44249e-15 -3.92444 -1.96222
Pt 1.96222 -1.96222 -1.96222
Pt 3.92444 -2.44249e-15 -1.96222
Pt 5.88666 1.96222 -1.96222
Pt 7.84889 3.92444 -1.96222
Pt 9.81111 5.88666 -1.96222
Pt -7.84889 -7.84889 -1.96222
Pt -5.88666 -5.88666 -1.96222
Pt -3.92444 -3.92444 -1.96222
Pt -1.96222 -1.96222 -1.96222
Pt -2.51215e-15 -2.51215e-15 -1.96222
Pt 1.96222 1.96222 -1.96222
Pt 3.92444 3.92444 -1.96222
Pt 5.88666 5.88666 -1.96222
Pt 7.84889 7.84889 -1.96222
Pt -9.81111 -5.88666 -1.96222
Pt -7.84889 -3.92444 -1.96222
Pt -5.88666 -1.96222 -1.96222
Pt -3.92444 -2.44249e-15 -1.96222
Pt -1.96222 1.96222 -1.96222
Pt -2.44249e-15 3.92444 -1.96222
Pt 1.96222 5.88666 -1.96222
Pt 3.92444 7.84889 -1.96222
Pt 5.88666 9.81111 -1.96222
Pt -11.7733 -3.92444 -1.96222
Pt -9.81111 -1.96222 -1.96222
Pt -7.84889 -3.10862e-15 -1.96222
Pt -5.88666 1.96222 -1.96222
Pt -3.92444 3.92444 -1.96222
Pt -1.96222 5.88666 -1.96222
Pt -2.22045e-15 7.84889 -1.96222
Pt 1.96222 9.81111 -1.96222
Pt 3.92444 11.7733 -1.96222
Pt -11.7733 -1.77636e-15 -1.96222
Pt -9.81111 1.96222 -1.96222
Pt -7.84889 3.92444 -1.96222
Pt -5.88666 5.88666 -1.96222
Pt -3.92444 7.84889 -1.96222
Pt -1.96222 9.81111 -1.96222
Pt -1.77636e-15 11.7733 -1.96222
Pt -11.7733 3.92444 -1.96222
Pt -9.81111 5.88666 -1.96222
Pt -7.84889 7.84889 -1.96222
Pt -5.88666 9.81111 -1.96222
Pt -3.92444 11.7733 -1.96222
Pt 1.96222 -11.7733 -3.92444
Pt 3.92444 -9.81111 -3.92444
Pt 5.88666 -7.84889 -3.92444
Pt 7.84889 -5.88666 -3.92444
Pt 9.81111 -3.92444 -3.92444
Pt 11.7733 -1.96222 -3.92444
Pt -1.96222 -11.7733 -3.92444
Pt -3.55271e-15 -9.81111 -3.92444
Pt 1.96222 -7.84889 -3.92444
Pt 3.92444 -5.88666 -3.92444
Pt 5.88666 -3.92444 -3.92444
Pt 7.84889 -1.96222 -3.92444
Pt 9.81111 5.32907e-15 -3.92444
Pt 11.7733 1.96222 -3.92444
Pt -3.92444 -9.81111 -3.92444
Pt -1.96222 -7.84889 -3.92444
Pt -3.9968e-15 -5.88666 -3.92444
Pt 1.96222 -3.92444 -3.92444
Pt 3.92444 -1.96222 -3.92444
Pt 5.88666 5.77316e-15 -3.92444
Pt 7.84889 1.96222 -3.92444
Pt 9.81111 3.92444 -3.92444
Pt -5.88666 -7.84889 -3.92444
Pt -3.92444 -5.88666 -3.92444
Pt -1.96222 -3.92444 -3.92444
Pt -3.77476e-15 -1.96222 -3.92444
Pt 1.96222 4.996e-15 -3.92444
Pt 3.92444 1.96222 -3.92444
Pt 5.88666 3.92444 -3.92444
Pt 7.84889 5.88666 -3.92444
Pt -7.84889 -5.88666 -3.92444
Pt -5.88666 -3.92444 -3.92444
Pt -3.92444 -1.96222 -3.92444
Pt -1.96222 4.996e-15 -3.92444
Pt -3.77476e-15 1.96222 -3.92444
Pt 1.96222 3.92444 -3.92444
Pt 3.92444 5.88666 -3.92444
Pt 5.88666 7.84889 -3.92444
Pt -9.81111 -3.92444 -3.92444
Pt -7.84889 -1.96222 -3.92444
Pt -5.88666 5.32907e-15 -3.92444
Pt -3.92444 1.96222 -3.92444
Pt -1.96222 3.92444 -3.92444
Pt -3.55271e-15 5.88666 -3.92444
Pt 1.96222 7.84889 -3.92444
Pt 3.92444 9.81111 -3.92444
Pt -11.7733 -1.96222 -3.92444
Pt -9.81111 5.32907e-15 -3.92444
Pt -7.84889 1.96222 -3.92444
Pt -5.88666 3.92444 -3.92444
Pt -3.92444 5.88666 -3.92444
Pt -1.96222 7.84889 -3.92444
Pt -3.55271e-15 9.81111 -3.92444
Pt 1.96222 11.7733 -3.92444
Pt -11.7733 1.96222 -3.92444
Pt -9.81111 3.92444 -3.92444
Pt -7.84889 5.88666 -3.92444
Pt -5.88666 7.84889 -3.92444
Pt -3.92444 9.81111 -3.92444
Pt -1.96222 11.7733 -3.92444
Pt -3.55271e-15 -11.7733 -5.88666
Pt 1.96222 -9.81111 -5.88666
Pt 3.92444 -7.84889 -5.88666
Pt 5.88666 -5.88666 -5.88666
Pt 7.84889 -3.92444 -5.88666
Pt 9.81111 -1.96222 -5.88666
Pt 11.7733 -1.77636e-15 -5.88666
Pt -1.96222 -9.81111 -5.88666
Pt -3.55271e-15 -7.84889 -5.88666
Pt 1.96222 -5.88666 -5.88666
Pt 3.92444 -3.92444 -5.88666
Pt 5.88666 -1.96222 -5.88666
Pt 7.84889 0 -5.88666
Pt 9.81111 1.96222 -5.88666
Pt -3.92444 -7.84889 -5.88666
Pt -1.96222 -5.88666 -5.88666
Pt -3.77476e-15 -3.92444 -5.88666
Pt 1.96222 -1.96222 -5.88666
Pt 3.92444 -6.66134e-16 -5.88666
Pt 5.88666 1.96222 -5.88666
Pt 7.84889 3.92444 -5.88666
Pt -5.88666 -5.88666 -5.88666
Pt -3.92444 -3.92444 -5.88666
Pt -1.96222 -1.96222 -5.88666
Pt -3.76822e-15 -1.25607e-15 -5.88666
Pt 1.96222 1.96222 -5.88666
Pt 3.92444 3.92444 -5.88666
Pt 5.88666 5.88666 -5.88666
Pt -7.84889 -3.92444 -5.88666
Pt -5.88666 -1.96222 -5.88666
Pt -3.92444 -6.66134e-16 -5.88666
Pt -1.96222 1.96222 -5.88666
Pt -3.77476e-15 3.92444 -5.88666
Pt 1.96222 5.88666 -5.88666
Pt 3.92444 7.84889 -5.88666
Pt -9.81111 -1.96222 -5.88666
Pt -7.84889 0 -5.88666
Pt -5.88666 1.96222 -5.88666
Pt -3.92444 3.92444 -5.88666
Pt -1.96222 5.88666 -5.88666
Pt -3.55271e-15 7.84889 -5.88666
Pt 1.96222 9.81111 -5.88666
Pt -11.7733 -1.77636e-15 -5.88666
Pt -9.81111 1.96222 -5.88666
Pt -7.84889 3.92444 -5.88666
Pt -5.88666 5.88666 -5.88666
Pt -3.92444 7.84889 -5.88666
Pt -1.96222 9.81111 -5.88666
Pt -3.55271e-15 11.7733 -5.88666
Pt 8.88178e-16 -9.81111 -7.84889
Pt 1.96222 -7.84889 -7.84889
Pt 3.92444 -5.88666 -7.84889
Pt 5.88666 -3.92444 -7.84889
Pt 7.84889 -1.96222 -7.84889
Pt 9.81111 -4.44089e-15 -7.84889
Pt -1.96222 -7.84889 -7.84889
Pt 0 -5.88666 -7.84889
Pt 1.96222 -3.92444 -7.84889
Pt 3.92444 -1.96222 -7.84889
Pt 5.88666 -4.44089e-15 -7.84889
Pt 7.84889 1.96222 -7.84889
Pt -3.92444 -5.88666 -7.84889
Pt -1.96222 -3.92444 -7.84889
Pt 6.66134e-16 -1.96222 -7.84889
Pt 1.96222 -4.996e-15 -7.84889
Pt 3.92444 1.96222 -7.84889
Pt 5.88666 3.92444 -7.84889
Pt -5.88666 -3.92444 -7.84889
Pt -3.92444 -1.96222 -7.84889
Pt -1.96222 -4.996e-15 -7.84889
Pt 6.66134e-16 1.96222 -7.84889
Pt 1.96222 3.92444 -7.84889
Pt 3.92444 5.88666 -7.84889
Pt -7.84889 -1.96222 -7.84889
Pt -5.88666 -5.32907e-15 -7.84889
Pt -3.92444 1.96222 -7.84889
Pt -1.96222 3.92444 -7.84889
Pt 8.88178e-16 5.88666 -7.84889
Pt 1.96222 7.84889 -7.84889
Pt -9.81111 -4.44089e-15 -7.84889
Pt -7.84889 1.96222 -7.84889
Pt -5.88666 3.92444 -7.84889
Pt -3.92444 5.88666 -7.84889
Pt -1.96222 7.84889 -7.84889
Pt 8.88178e-16 9.81111 -7.84889
Au -7.84889 7.84889 -5.88666
