1040
Pt Pt 1 1
Pt 3.92444 -17.66 0
Pt 5.88666 -15.6978 0
Pt 7.84889 -13.7355 0
Pt 9.81111 -11.7733 0
Pt 11.7733 -9.81111 0
Pt 13.7355 -7.84889 0
Pt 15.6978 -5.88666 0
Pt 17.66 -3.92444 0
Pt 7.10543e-15 -17.66 0
Pt 1.96222 -15.6978 0
Pt 3.92444 -13.7355 0
Pt 5.88666 -11.7733 0
Pt 7.84889 -9.81111 0
Pt 9.81111 -7.84889 0
Pt 11.7733 -5.88666 0
Pt 13.7355 -3.92444 0
Pt 15.6978 -1.96222 0
Pt 17.66 -1.95399e-14 0
Pt -3.92444 -17.66 0
Pt -1.96222 -15.6978 0
Pt 7.10543e-15 -13.7355 0
Pt 1.96222 -11.7733 0
Pt 3.92444 -9.81111 0
Pt 5.88666 -7.84889 0
Pt 7.84889 -5.88666 0
Pt 9.81111 -3.92444 0
Pt 11.7733 -1.96222 0
Pt 13.7355 -2.13163e-14 0
Pt 15.6978 1.96222 0
Pt 17.66 3.92444 0
Pt -5.88666 -15.6978 0
Pt -3.92444 -13.7355 0
Pt -1.96222 -11.7733 0
Pt 7.10543e-15 -9.81111 0
Pt 1.96222 -7.84889 0
Pt 3.92444 -5.88666 0
Pt 5.88666 -3.92444 0
Pt 7.84889 -1.96222 0
Pt 9.81111 -1.95399e-14 0
Pt 11.7733 1.96222 0
Pt 13.7355 3.92444 0
Pt 15.6978 5.88666 0
Pt -7.84889 -13.7355 0
Pt -5.88666 -11.7733 0
Pt -3.92444 -9.81111 0
Pt -1.96222 -7.84889 0
Pt 7.54952e-15 -5.88666 0
Pt 1.96222 -3.92444 0
Pt 3.92444 -1.96222 0
Pt 5.88666 -1.86517e-14 0
Pt 7.84889 1.96222 0
Pt 9.81111 3.92444 0
Pt 11.7733 5.88666 0
Pt 13.7355 7.84889 0
Pt -9.81111 -11.7733 0
Pt -7.84889 -9.81111 0
Pt -5.88666 -7.84889 0
Pt -3.92444 -5.88666 0
Pt -1.96222 -3.92444 0
Pt 7.54952e-15 -1.96222 0
Pt 1.96222 -2.0095e-14 0
Pt 3.92444 1.96222 0
Pt 5.88666 3.92444 0
Pt 7.84889 5.88666 0
Pt 9.81111 7.84889 0
Pt 11.7733 9.81111 0
Pt -11.7733 -9.81111 0
Pt -9.81111 -7.84889 0
Pt -7.84889 -5.88666 0
Pt -5.88666 -3.92444 0
Pt -3.92444 -1.96222 0
Pt -1.96222 -2.0095e-14 0
Pt 7.54952e-15 1.96222 0
Pt 1.96222 3.92444 0
Pt 3.92444 5.88666 0
Pt 5.88666 7.84889 0
Pt 7.84889 9.81111 0
Pt 9.81111 11.7733 0
Pt -13.7355 -7.84889 0
Pt -11.7733 -5.88666 0
Pt -9.81111 -3.92444 0
Pt -7.84889 -1.96222 0
Pt -5.88666 -1.86517e-14 0
Pt -3.92444 1.96222 0
Pt -1.96222 3.92444 0
Pt 7.54952e-15 5.88666 0
Pt 1.96222 7.84889 0
Pt 3.92444 9.81111 0
Pt 5.88666 11.7733 0
Pt 7.84889 13.7355 0
Pt -15.6978 -5.88666 0
Pt -13.7355 -3.92444 0
Pt -11.7733 -1.96222 0
Pt -9.81111 -2.04281e-14 0
Pt -7.84889 1.96222 0
Pt -5.88666 3.92444 0
Pt -3.92444 5.88666 0
Pt -1.96222 7.84889 0
Pt 7.99361e-15 9.81111 0
Pt 1.96222 11.7733 0
Pt 3.92444 13.7355 0
Pt 5.88666 15.6978 0
Pt -17.66 -3.92444 0
Pt -15.6978 -1.96222 0
Pt -13.7355 -2.13163e-14 0
Pt -11.7733 1.96222 0
Pt -9.81111 3.92444 0
Pt -7.84889 5.88666 0
Pt -5.88666 7.84889 0
Pt -3.92444 9.81111 0
Pt -1.96222 11.7733 0
Pt 7.10543e-15 13.7355 0
Pt 1.96222 15.6978 0
Pt 3.92444 17.66 0
Pt -17.66 -1.95399e-14 0
Pt -15.6978 1.96222 0
Pt -13.7355 3.92444 0
Pt -11.7733 5.88666 0
Pt -9.81111 7.84889 0
Pt -7.84889 9.81111 0
Pt -5.88666 11.7733 0
Pt -3.92444 13.7355 0
Pt -1.96222 15.6978 0
Pt 7.10543e-15 17.66 0
Pt -17.66 3.92444 0
Pt -15.6978 5.88666 0
Pt -13.7355 7.84889 0
Pt -11.7733 9.81111 0
Pt -9.81111 11.7733 0
Pt -7.84889 13.7355 0
Pt -5.88666 15.6978 0
Pt -3.92444 17.66 0
Pt 1.96222 -17.66 1.96222
Pt 3.92444 -15.6978 1.96222
Pt 5.88666 -13.7355 1.96222
Pt 7.84889 -11.7733 1.96222
Pt 9.81111 -9.81111 1.96222
Pt 11.7733 -7.84889 1.96222
Pt 13.7355 -5.88666 1.96222
Pt 15.6978 -3.92444 1.96222
Pt 17.66 -1.96222 1.96222
Pt -1.96222 -17.66 1.96222
Pt -2.66454e-15 -15.6978 1.96222
Pt 1.96222 -13.7355 1.96222
Pt 3.92444 -11.7733 1.96222
Pt 5.88666 -9.81111 1.96222
Pt 7.84889 -7.84889 1.96222
Pt 9.81111 -5.88666 1.96222
Pt 11.7733 -3.92444 1.96222
Pt 13.7355 -1.96222 1.96222
Pt 15.6978 1.68754e-14 1.96222
Pt 17.66 1.96222 1.96222
Pt -3.92444 -15.6978 1.96222
Pt -1.96222 -13.7355 1.96222
Pt -1.77636e-15 -11.7733 1.96222
Pt 1.96222 -9.81111 1.96222
Pt 3.92444 -7.84889 1.96222
Pt 5.88666 -5.88666 1.96222
Pt 7.84889 -3.92444 1.96222
Pt 9.81111 -1.96222 1.96222
Pt 11.7733 1.68754e-14 1.96222
Pt 13.7355 1.96222 1.96222
Pt 15.6978 3.92444 1.96222
Pt -5.88666 -13.7355 1.96222
Pt -3.92444 -11.7733 1.96222
Pt -1.96222 -9.81111 1.96222
Pt -2.22045e-15 -7.84889 1.96222
Pt 1.96222 -5.88666 1.96222
Pt 3.92444 -3.92444 1.96222
Pt 5.88666 -1.96222 1.96222
Pt 7.84889 1.73195e-14 1.96222
Pt 9.81111 1.96222 1.96222
Pt 11.7733 3.92444 1.96222
Pt 13.7355 5.88666 1.96222
Pt -7.84889 -11.7733 1.96222
Pt -5.88666 -9.81111 1.96222
Pt -3.92444 -7.84889 1.96222
Pt -1.96222 -5.88666 1.96222
Pt -2.44249e-15 -3.92444 1.96222
Pt 1.96222 -1.96222 1.96222
Pt 3.92444 1.62093e-14 1.96222
Pt 5.88666 1.96222 1.96222
Pt 7.84889 3.92444 1.96222
Pt 9.81111 5.88666 1.96222
Pt 11.7733 7.84889 1.96222
Pt -9.81111 -9.81111 1.96222
Pt -7.84889 -7.84889 1.96222
Pt -5.88666 -5.88666 1.96222
Pt -3.92444 -3.92444 1.96222
Pt -1.96222 -1.96222 1.96222
Pt -2.51215e-15 1.7585e-14 1.96222
Pt 1.96222 1.96222 1.96222
Pt 3.92444 3.92444 1.96222
Pt 5.88666 5.88666 1.96222
Pt 7.84889 7.84889 1.96222
Pt 9.81111 9.81111 1.96222
Pt -11.7733 -7.84889 1.96222
Pt -9.81111 -5.88666 1.96222
Pt -7.84889 -3.92444 1.96222
Pt -5.88666 -1.96222 1.96222
Pt -3.92444 1.64313e-14 1.96222
Pt -1.96222 1.96222 1.96222
Pt -2.66454e-15 3.92444 1.96222
Pt 1.96222 5.88666 1.96222
Pt 3.92444 7.84889 1.96222
Pt 5.88666 9.81111 1.96222
Pt 7.84889 11.7733 1.96222
Pt -13.7355 -5.88666 1.96222
Pt -11.7733 -3.92444 1.96222
Pt -9.81111 -1.96222 1.96222
Pt -7.84889 1.77636e-14 1.96222
Pt -5.88666 1.96222 1.96222
Pt -3.92444 3.92444 1.96222
Pt -1.96222 5.88666 1.96222
Pt -2.66454e-15 7.84889 1.96222
Pt 1.96222 9.81111 1.96222
Pt 3.92444 11.7733 1.96222
Pt 5.88666 13.7355 1.96222
Pt -15.6978 -3.92444 1.96222
Pt -13.7355 -1.96222 1.96222
Pt -11.7733 1.77636e-14 1.96222
Pt -9.81111 1.96222 1.96222
Pt -7.84889 3.92444 1.96222
Pt -5.88666 5.88666 1.96222
Pt -3.92444 7.84889 1.96222
Pt -1.96222 9.81111 1.96222
Pt -2.66454e-15 11.7733 1.96222
Pt 1.96222 13.7355 1.96222
Pt 3.92444 15.6978 1.96222
Pt -17.66 -1.96222 1.96222
Pt -15.6978 1.68754e-14 1.96222
Pt -13.7355 1.96222 1.96222
Pt -11.7733 3.92444 1.96222
Pt -9.81111 5.88666 1.96222
Pt -7.84889 7.84889 1.96222
Pt -5.88666 9.81111 1.96222
Pt -3.92444 11.7733 1.96222
Pt -1.96222 13.7355 1.96222
Pt -2.66454e-15 15.6978 1.96222
Pt 1.96222 17.66 1.96222
Pt -17.66 1.96222 1.96222
Pt -15.6978 3.92444 1.96222
Pt -13.7355 5.88666 1.96222
Pt -11.7733 7.84889 1.96222
Pt -9.81111 9.81111 1.96222
Pt -7.84889 11.7733 1.96222
Pt -5.88666 13.7355 1.96222
Pt -3.92444 15.6978 1.96222
Pt -1.96222 17.66 1.96222
Pt 7.10543e-15 -17.66 3.92444
Pt 1.96222 -15.6978 3.92444
Pt 3.92444 -13.7355 3.92444
Pt 5.88666 -11.7733 3.92444
Pt 7.84889 -9.81111 3.92444
Pt 9.81111 -7.84889 3.92444
Pt 11.7733 -5.88666 3.92444
Pt 13.7355 -3.92444 3.92444
Pt 15.6978 -1.96222 3.92444
Pt 17.66 -7.10543e-15 3.92444
Pt -1.96222 -15.6978 3.92444
Pt 6.21725e-15 -13.7355 3.92444
Pt 1.96222 -11.7733 3.92444
Pt 3.92444 -9.81111 3.92444
Pt 5.88666 -7.84889 3.92444
Pt 7.84889 -5.88666 3.92444
Pt 9.81111 -3.92444 3.92444
Pt 11.7733 -1.96222 3.92444
Pt 13.7355 -4.44089e-15 3.92444
Pt 15.6978 1.96222 3.92444
Pt -3.92444 -13.7355 3.92444
Pt -1.96222 -11.7733 3.92444
Pt 6.21725e-15 -9.81111 3.92444
Pt 1.96222 -7.84889 3.92444
Pt 3.92444 -5.88666 3.92444
Pt 5.88666 -3.92444 3.92444
Pt 7.84889 -1.96222 3.92444
Pt 9.81111 -4.44089e-15 3.92444
Pt 11.7733 1.96222 3.92444
Pt 13.7355 3.92444 3.92444
Pt -5.88666 -11.7733 3.92444
Pt -3.92444 -9.81111 3.92444
Pt -1.96222 -7.84889 3.92444
Pt 6.21725e-15 -5.88666 3.92444
Pt 1.96222 -3.92444 3.92444
Pt 3.92444 -1.96222 3.92444
Pt 5.88666 -6.21725e-15 3.92444
Pt 7.84889 1.96222 3.92444
Pt 9.81111 3.92444 3.92444
Pt 11.7733 5.88666 3.92444
Pt -7.84889 -9.81111 3.92444
Pt -5.88666 -7.84889 3.92444
Pt -3.92444 -5.88666 3.92444
Pt -1.96222 -3.92444 3.92444
Pt 6.21725e-15 -1.96222 3.92444
Pt 1.96222 -4.996e-15 3.92444
Pt 3.92444 1.96222 3.92444
Pt 5.88666 3.92444 3.92444
Pt 7.84889 5.88666 3.92444
Pt 9.81111 7.84889 3.92444
Pt -9.81111 -7.84889 3.92444
Pt -7.84889 -5.88666 3.92444
Pt -5.88666 -3.92444 3.92444
Pt -3.92444 -1.96222 3.92444
Pt -1.96222 -5.10703e-15 3.92444
Pt 6.32827e-15 1.96222 3.92444
Pt 1.96222 3.92444 3.92444
Pt 3.92444 5.88666 3.92444
Pt 5.88666 7.84889 3.92444
Pt 7.84889 9.81111 3.92444
Pt -11.7733 -5.88666 3.92444
Pt -9.81111 -3.92444 3.92444
Pt -7.84889 -1.96222 3.92444
Pt -5.88666 -6.21725e-15 3.92444
Pt -3.92444 1.96222 3.92444
Pt -1.96222 3.92444 3.92444
Pt 6.21725e-15 5.88666 3.92444
Pt 1.96222 7.84889 3.92444
Pt 3.92444 9.81111 3.92444
Pt 5.88666 11.7733 3.92444
Pt -13.7355 -3.92444 3.92444
Pt -11.7733 -1.96222 3.92444
Pt -9.81111 -4.44089e-15 3.92444
Pt -7.84889 1.96222 3.92444
Pt -5.88666 3.92444 3.92444
Pt -3.92444 5.88666 3.92444
Pt -1.96222 7.84889 3.92444
Pt 6.21725e-15 9.81111 3.92444
Pt 1.96222 11.7733 3.92444
Pt 3.92444 13.7355 3.92444
Pt -15.6978 -1.96222 3.92444
Pt -13.7355 -5.32907e-15 3.92444
Pt -11.7733 1.96222 3.92444
Pt -9.81111 3.92444 3.92444
Pt -7.84889 5.88666 3.92444
Pt -5.88666 7.84889 3.92444
Pt -3.92444 9.81111 3.92444
Pt -1.96222 11.7733 3.92444
Pt 7.10543e-15 13.7355 3.92444
Pt 1.96222 15.6978 3.92444
Pt -17.66 -7.10543e-15 3.92444
Pt -15.6978 1.96222 3.92444
Pt -13.7355 3.92444 3.92444
Pt -11.7733 5.88666 3.92444
Pt -9.81111 7.84889 3.92444
Pt -7.84889 9.81111 3.92444
Pt -5.88666 11.7733 3.92444
Pt -3.92444 13.7355 3.92444
Pt -1.96222 15.6978 3.92444
Pt 7.10543e-15 17.66 3.92444
Pt -2.66454e-15 -15.6978 5.88666
Pt 1.96222 -13.7355 5.88666
Pt 3.92444 -11.7733 5.88666
Pt 5.88666 -9.81111 5.88666
Pt 7.84889 -7.84889 5.88666
Pt 9.81111 -5.88666 5.88666
Pt 11.7733 -3.92444 5.88666
Pt 13.7355 -1.96222 5.88666
Pt 15.6978 -2.66454e-15 5.88666
Pt -1.96222 -13.7355 5.88666
Pt -2.66454e-15 -11.7733 5.88666
Pt 1.96222 -9.81111 5.88666
Pt 3.92444 -7.84889 5.88666
Pt 5.88666 -5.88666 5.88666
Pt 7.84889 -3.92444 5.88666
Pt 9.81111 -1.96222 5.88666
Pt 11.7733 -8.88178e-16 5.88666
Pt 13.7355 1.96222 5.88666
Pt -3.92444 -11.7733 5.88666
Pt -1.96222 -9.81111 5.88666
Pt -2.22045e-15 -7.84889 5.88666
Pt 1.96222 -5.88666 5.88666
Pt 3.92444 -3.92444 5.88666
Pt 5.88666 -1.96222 5.88666
Pt 7.84889 -3.10862e-15 5.88666
Pt 9.81111 1.96222 5.88666
Pt 11.7733 3.92444 5.88666
Pt -5.88666 -9.81111 5.88666
Pt -3.92444 -7.84889 5.88666
Pt -1.96222 -5.88666 5.88666
Pt -2.44249e-15 -3.92444 5.88666
Pt 1.96222 -1.96222 5.88666
Pt 3.92444 -2.44249e-15 5.88666
Pt 5.88666 1.96222 5.88666
Pt 7.84889 3.92444 5.88666
Pt 9.81111 5.88666 5.88666
Pt -7.84889 -7.84889 5.88666
Pt -5.88666 -5.88666 5.88666
Pt -3.92444 -3.92444 5.88666
Pt -1.96222 -1.96222 5.88666
Pt -2.51215e-15 -2.51215e-15 5.88666
Pt 1.96222 1.96222 5.88666
Pt 3.92444 3.92444 5.88666
Pt 5.88666 5.88666 5.88666
Pt 7.84889 7.84889 5.88666
Pt -9.81111 -5.88666 5.88666
Pt -7.84889 -3.92444 5.88666
Pt -5.88666 -1.96222 5.88666
Pt -3.92444 -2.44249e-15 5.88666
Pt -1.96222 1.96222 5.88666
Pt -2.44249e-15 3.92444 5.88666
Pt 1.96222 5.88666 5.88666
Pt 3.92444 7.84889 5.88666
Pt 5.88666 9.81111 5.88666
Pt -11.7733 -3.92444 5.88666
Pt -9.81111 -1.96222 5.88666
Pt -7.84889 -3.10862e-15 5.88666
Pt -5.88666 1.96222 5.88666
Pt -3.92444 3.92444 5.88666
Pt -1.96222 5.88666 5.88666
Pt -2.22045e-15 7.84889 5.88666
Pt 1.96222 9.81111 5.88666
Pt 3.92444 11.7733 5.88666
Pt -13.7355 -1.96222 5.88666
Pt -11.7733 -1.77636e-15 5.88666
Pt -9.81111 1.96222 5.88666
Pt -7.84889 3.92444 5.88666
Pt -5.88666 5.88666 5.88666
Pt -3.92444 7.84889 5.88666
Pt -1.96222 9.81111 5.88666
Pt -1.77636e-15 11.7733 5.88666
Pt 1.96222 13.7355 5.88666
Pt -15.6978 -2.66454e-15 5.88666
Pt -13.7355 1.96222 5.88666
Pt -11.7733 3.92444 5.88666
Pt -9.81111 5.88666 5.88666
Pt -7.84889 7.84889 5.88666
Pt -5.88666 9.81111 5.88666
Pt -3.92444 11.7733 5.88666
Pt -1.96222 13.7355 5.88666
Pt -2.66454e-15 15.6978 5.88666
Pt -3.55271e-15 -13.7355 7.84889
Pt 1.96222 -11.7733 7.84889
Pt 3.92444 -9.81111 7.84889
Pt 5.88666 -7.84889 7.84889
Pt 7.84889 -5.88666 7.84889
Pt 9.81111 -3.92444 7.84889
Pt 11.7733 -1.96222 7.84889
Pt 13.7355 6.21725e-15 7.84889
Pt -1.96222 -11.7733 7.84889
Pt -3.55271e-15 -9.81111 7.84889
Pt 1.96222 -7.84889 7.84889
Pt 3.92444 -5.88666 7.84889
Pt 5.88666 -3.92444 7.84889
Pt 7.84889 -1.96222 7.84889
Pt 9.81111 5.32907e-15 7.84889
Pt 11.7733 1.96222 7.84889
Pt -3.92444 -9.81111 7.84889
Pt -1.96222 -7.84889 7.84889
Pt -3.9968e-15 -5.88666 7.84889
Pt 1.96222 -3.92444 7.84889
Pt 3.92444 -1.96222 7.84889
Pt 5.88666 5.77316e-15 7.84889
Pt 7.84889 1.96222 7.84889
Pt 9.81111 3.92444 7.84889
Pt -5.88666 -7.84889 7.84889
Pt -3.92444 -5.88666 7.84889
Pt -1.96222 -3.92444 7.84889
Pt -3.77476e-15 -1.96222 7.84889
Pt 1.96222 4.996e-15 7.84889
Pt 3.92444 1.96222 7.84889
Pt 5.88666 3.92444 7.84889
Pt 7.84889 5.88666 7.84889
Pt -7.84889 -5.88666 7.84889
Pt -5.88666 -3.92444 7.84889
Pt -3.92444 -1.96222 7.84889
Pt -1.96222 4.996e-15 7.84889
Pt -3.77476e-15 1.96222 7.84889
Pt 1.96222 3.92444 7.84889
Pt 3.92444 5.88666 7.84889
Pt 5.88666 7.84889 7.84889
Pt -9.81111 -3.92444 7.84889
Pt -7.84889 -1.96222 7.84889
Pt -5.88666 5.32907e-15 7.84889
Pt -3.92444 1.96222 7.84889
Pt -1.96222 3.92444 7.84889
Pt -3.55271e-15 5.88666 7.84889
Pt 1.96222 7.84889 7.84889
Pt 3.92444 9.81111 7.84889
Pt -11.7733 -1.96222 7.84889
Pt -9.81111 5.32907e-15 7.84889
Pt -7.84889 1.96222 7.84889
Pt -5.88666 3.92444 7.84889
Pt -3.92444 5.88666 7.84889
Pt -1.96222 7.84889 7.84889
Pt -3.55271e-15 9.81111 7.84889
Pt 1.96222 11.7733 7.84889
Pt -13.7355 6.21725e-15 7.84889
Pt -11.7733 1.96222 7.84889
Pt -9.81111 3.92444 7.84889
Pt -7.84889 5.88666 7.84889
Pt -5.88666 7.84889 7.84889
Pt -3.92444 9.81111 7.84889
Pt -1.96222 11.7733 7.84889
Pt -3.55271e-15 13.7355 7.84889
Pt -3.55271e-15 -11.7733 9.81111
Pt 1.96222 -9.81111 9.81111
Pt 3.92444 -7.84889 9.81111
Pt 5.88666 -5.88666 9.81111
Pt 7.84889 -3.92444 9.81111
Pt 9.81111 -1.96222 9.81111
Pt 11.7733 -1.77636e-15 9.81111
Pt -1.96222 -9.81111 9.81111
Pt -3.55271e-15 -7.84889 9.81111
Pt 1.96222 -5.88666 9.81111
Pt 3.92444 -3.92444 9.81111
Pt 5.88666 -1.96222 9.81111
Pt 7.84889 0 9.81111
Pt 9.81111 1.96222 9.81111
Pt -3.92444 -7.84889 9.81111
Pt -1.96222 -5.88666 9.81111
Pt -3.77476e-15 -3.92444 9.81111
Pt 1.96222 -1.96222 9.81111
Pt 3.92444 -6.66134e-16 9.81111
Pt 5.88666 1.96222 9.81111
Pt 7.84889 3.92444 9.81111
Pt -5.88666 -5.88666 9.81111
Pt -3.92444 -3.92444 9.81111
Pt -1.96222 -1.96222 9.81111
Pt -3.76822e-15 -1.25607e-15 9.81111
Pt 1.96222 1.96222 9.81111
Pt 3.92444 3.92444 9.81111
Pt 5.88666 5.88666 9.81111
Pt -7.84889 -3.92444 9.81111
Pt -5.88666 -1.96222 9.81111
Pt -3.92444 -6.66134e-16 9.81111
Pt -1.96222 1.96222 9.81111
Pt -3.77476e-15 3.92444 9.81111
Pt 1.96222 5.88666 9.81111
Pt 3.92444 7.84889 9.81111
Pt -9.81111 -1.96222 9.81111
Pt -7.84889 0 9.81111
Pt -5.88666 1.96222 9.81111
Pt -3.92444 3.92444 9.81111
Pt -1.96222 5.88666 9.81111
Pt -3.55271e-15 7.84889 9.81111
Pt 1.96222 9.81111 9.81111
Pt -11.7733 -1.77636e-15 9.81111
Pt -9.81111 1.96222 9.81111
Pt -7.84889 3.92444 9.81111
Pt -5.88666 5.88666 9.81111
Pt -3.92444 7.84889 9.81111
Pt -1.96222 9.81111 9.81111
Pt -3.55271e-15 11.7733 9.81111
Pt 8.88178e-16 -9.81111 11.7733
Pt 1.96222 -7.84889 11.7733
Pt 3.92444 -5.88666 11.7733
Pt 5.88666 -3.92444 11.7733
Pt 7.84889 -1.96222 11.7733
Pt 9.81111 -4.44089e-15 11.7733
Pt -1.96222 -7.84889 11.7733
Pt 0 -5.88666 11.7733
Pt 1.96222 -3.92444 11.7733
Pt 3.92444 -1.96222 11.7733
Pt 5.88666 -4.44089e-15 11.7733
Pt 7.84889 1.96222 11.7733
Pt -3.92444 -5.88666 11.7733
Pt -1.96222 -3.92444 11.7733
Pt 6.66134e-16 -1.96222 11.7733
Pt 1.96222 -4.996e-15 11.7733
Pt 3.92444 1.96222 11.7733
Pt 5.88666 3.92444 11.7733
Pt -5.88666 -3.92444 11.7733
Pt -3.92444 -1.96222 11.7733
Pt -1.96222 -4.996e-15 11.7733
Pt 6.66134e-16 1.96222 11.7733
Pt 1.96222 3.92444 11.7733
Pt 3.92444 5.88666 11.7733
Pt -7.84889 -1.96222 11.7733
Pt -5.88666 -5.32907e-15 11.7733
Pt -3.92444 1.96222 11.7733
Pt -1.96222 3.92444 11.7733
Pt 8.88178e-16 5.88666 11.7733
Pt 1.96222 7.84889 11.7733
Pt -9.81111 -4.44089e-15 11.7733
Pt -7.84889 1.96222 11.7733
Pt -5.88666 3.92444 11.7733
Pt -3.92444 5.88666 11.7733
Pt -1.96222 7.84889 11.7733
Pt 8.88178e-16 9.81111 11.7733
Pt -4.44089e-16 -7.84889 13.7355
Pt 1.96222 -5.88666 13.7355
Pt 3.92444 -3.92444 13.7355
Pt 5.88666 -1.96222 13.7355
Pt 7.84889 -8.88178e-16 13.7355
Pt -1.96222 -5.88666 13.7355
Pt -6.66134e-16 -3.92444 13.7355
Pt 1.96222 -1.96222 13.7355
Pt 3.92444 -8.88178e-16 13.7355
Pt 5.88666 1.96222 13.7355
Pt -3.92444 -3.92444 13.7355
Pt -1.96222 -1.96222 13.7355
Pt -6.28037e-16 -6.28037e-16 13.7355
Pt 1.96222 1.96222 13.7355
Pt 3.92444 3.92444 13.7355
Pt -5.88666 -1.96222 13.7355
Pt -3.92444 -1.11022e-15 13.7355
Pt -1.96222 1.96222 13.7355
Pt -4.44089e-16 3.92444 13.7355
Pt 1.96222 5.88666 13.7355
Pt -7.84889 -4.44089e-16 13.7355
Pt -5.88666 1.96222 13.7355
Pt -3.92444 3.92444 13.7355
Pt -1.96222 5.88666 13.7355
Pt -8.88178e-16 7.84889 13.7355
Pt 8.88178e-16 -5.88666 15.6978
Pt 1.96222 -3.92444 15.6978
Pt 3.92444 -1.96222 15.6978
Pt 5.88666 0 15.6978
Pt -1.96222 -3.92444 15.6978
Pt 1.22125e-15 -1.96222 15.6978
Pt 1.96222 3.33067e-16 15.6978
Pt 3.92444 1.96222 15.6978
Pt -3.92444 -1.96222 15.6978
Pt -1.96222 3.33067e-16 15.6978
Pt 1.22125e-15 1.96222 15.6978
Pt 1.96222 3.92444 15.6978
Pt -5.88666 0 15.6978
Pt -3.92444 1.96222 15.6978
Pt -1.96222 3.92444 15.6978
Pt 8.88178e-16 5.88666 15.6978
Pt 0 -3.92444 17.66
Pt 1.96222 -1.96222 17.66
Pt 3.92444 0 17.66
Pt -1.96222 -1.96222 17.66
Pt 0 0 17.66
Pt 1.96222 1.96222 17.66
Pt -3.92444 0 17.66
Pt -1.96222 1.96222 17.66
Pt 0 3.92444 17.66
Pt 1.96222 -17.66 -1.96222
Pt 3.92444 -15.6978 -1.96222
Pt 5.88666 -13.7355 -1.96222
Pt 7.84889 -11.7733 -1.96222
Pt 9.81111 -9.81111 -1.96222
Pt 11.7733 -7.84889 -1.96222
Pt 13.7355 -5.88666 -1.96222
Pt 15.6978 -3.92444 -1.96222
Pt 17.66 -1.96222 -1.96222
Pt -1.96222 -17.66 -1.96222
Pt -2.66454e-15 -15.6978 -1.96222
Pt 1.96222 -13.7355 -1.96222
Pt 3.92444 -11.7733 -1.96222
Pt 5.88666 -9.81111 -1.96222
Pt 7.84889 -7.84889 -1.96222
Pt 9.81111 -5.88666 -1.96222
Pt 11.7733 -3.92444 -1.96222
Pt 13.7355 -1.96222 -1.96222
Pt 15.6978 1.68754e-14 -1.96222
Pt 17.66 1.96222 -1.96222
Pt -3.92444 -15.6978 -1.96222
Pt -1.96222 -13.7355 -1.96222
Pt -1.77636e-15 -11.7733 -1.96222
Pt 1.96222 -9.81111 -1.96222
Pt 3.92444 -7.84889 -1.96222
Pt 5.88666 -5.88666 -1.96222
Pt 7.84889 -3.92444 -1.96222
Pt 9.81111 -1.96222 -1.96222
Pt 11.7733 1.68754e-14 -1.96222
Pt 13.7355 1.96222 -1.96222
Pt 15.6978 3.92444 -1.96222
Pt -5.88666 -13.7355 -1.96222
Pt -3.92444 -11.7733 -1.96222
Pt -1.96222 -9.81111 -1.96222
Pt -2.22045e-15 -7.84889 -1.96222
Pt 1.96222 -5.88666 -1.96222
Pt 3.92444 -3.92444 -1.96222
Pt 5.88666 -1.96222 -1.96222
Pt 7.84889 1.73195e-14 -1.96222
Pt 9.81111 1.96222 -1.96222
Pt 11.7733 3.92444 -1.96222
Pt 13.7355 5.88666 -1.96222
Pt -7.84889 -11.7733 -1.96222
Pt -5.88666 -9.81111 -1.96222
Pt -3.92444 -7.84889 -1.96222
Pt -1.96222 -5.88666 -1.96222
Pt -2.44249e-15 -3.92444 -1.96222
Pt 1.96222 -1.96222 -1.96222
Pt 3.92444 1.62093e-14 -1.96222
Pt 5.88666 1.96222 -1.96222
Pt 7.84889 3.92444 -1.96222
Pt 9.81111 5.88666 -1.96222
Pt 11.7733 7.84889 -1.96222
Pt -9.81111 -9.81111 -1.96222
Pt -7.84889 -7.84889 -1.96222
Pt -5.88666 -5.88666 -1.96222
Pt -3.92444 -3.92444 -1.96222
Pt -1.96222 -1.96222 -1.96222
Pt -2.51215e-15 1.7585e-14 -1.96222
Pt 1.96222 1.96222 -1.96222
Pt 3.92444 3.92444 -1.96222
Pt 5.88666 5.88666 -1.96222
Pt 7.84889 7.84889 -1.96222
Pt 9.81111 9.81111 -1.96222
Pt -11.7733 -7.84889 -1.96222
Pt -9.81111 -5.88666 -1.96222
Pt -7.84889 -3.92444 -1.96222
Pt -5.88666 -1.96222 -1.96222
Pt -3.92444 1.64313e-14 -1.96222
Pt -1.96222 1.96222 -1.96222
Pt -2.66454e-15 3.92444 -1.96222
Pt 1.96222 5.88666 -1.96222
Pt 3.92444 7.84889 -1.96222
Pt 5.88666 9.81111 -1.96222
Pt 7.84889 11.7733 -1.96222
Pt -13.7355 -5.88666 -1.96222
Pt -11.7733 -3.92444 -1.96222
Pt -9.81111 -1.96222 -1.96222
Pt -7.84889 1.77636e-14 -1.96222
Pt -5.88666 1.96222 -1.96222
Pt -3.92444 3.92444 -1.96222
Pt -1.96222 5.88666 -1.96222
Pt -2.66454e-15 7.84889 -1.96222
Pt 1.96222 9.81111 -1.96222
Pt 3.92444 11.7733 -1.96222
Pt 5.88666 13.7355 -1.96222
Pt -15.6978 -3.92444 -1.96222
Pt -13.7355 -1.96222 -1.96222
Pt -11.7733 1.77636e-14 -1.96222
Pt -9.81111 1.96222 -1.96222
Pt -7.84889 3.92444 -1.96222
Pt -5.88666 5.88666 -1.96222
Pt -3.92444 7.84889 -1.96222
Pt -1.96222 9.81111 -1.96222
Pt -2.66454e-15 11.7733 -1.96222
Pt 1.96222 13.7355 -1.96222
Pt 3.92444 15.6978 -1.96222
Pt -17.66 -1.96222 -1.96222
Pt -15.6978 1.68754e-14 -1.96222
Pt -13.7355 1.96222 -1.96222
Pt -11.7733 3.92444 -1.96222
Pt -9.81111 5.88666 -1.96222
Pt -7.84889 7.84889 -1.96222
Pt -5.88666 9.81111 -1.96222
Pt -3.92444 11.7733 -1.96222
Pt -1.96222 13.7355 -1.96222
Pt -2.66454e-15 15.6978 -1.96222
Pt 1.96222 17.66 -1.96222
Pt -17.66 1.96222 -1.96222
Pt -15.6978 3.92444 -1.96222
Pt -13.7355 5.88666 -1.96222
Pt -11.7733 7.84889 -1.96222
Pt -9.81111 9.81111 -1.96222
Pt -7.84889 11.7733 -1.96222
Pt -5.88666 13.7355 -1.96222
Pt -3.92444 15.6978 -1.96222
Pt -1.96222 17.66 -1.96222
Pt 7.10543e-15 -17.66 -3.92444
Pt 1.96222 -15.6978 -3.92444
Pt 3.92444 -13.7355 -3.92444
Pt 5.88666 -11.7733 -3.92444
Pt 7.84889 -9.81111 -3.92444
Pt 9.81111 -7.84889 -3.92444
Pt 11.7733 -5.88666 -3.92444
Pt 13.7355 -3.92444 -3.92444
Pt 15.6978 -1.96222 -3.92444
Pt 17.66 -7.10543e-15 -3.92444
Pt -1.96222 -15.6978 -3.92444
Pt 6.21725e-15 -13.7355 -3.92444
Pt 1.96222 -11.7733 -3.92444
Pt 3.92444 -9.81111 -3.92444
Pt 5.88666 -7.84889 -3.92444
Pt 7.84889 -5.88666 -3.92444
Pt 9.81111 -3.92444 -3.92444
Pt 11.7733 -1.96222 -3.92444
Pt 13.7355 -4.44089e-15 -3.92444
Pt 15.6978 1.96222 -3.92444
Pt -3.92444 -13.7355 -3.92444
Pt -1.96222 -11.7733 -3.92444
Pt 6.21725e-15 -9.81111 -3.92444
Pt 1.96222 -7.84889 -3.92444
Pt 3.92444 -5.88666 -3.92444
Pt 5.88666 -3.92444 -3.92444
Pt 7.84889 -1.96222 -3.92444
Pt 9.81111 -4.44089e-15 -3.92444
Pt 11.7733 1.96222 -3.92444
Pt 13.7355 3.92444 -3.92444
Pt -5.88666 -11.7733 -3.92444
Pt -3.92444 -9.81111 -3.92444
Pt -1.96222 -7.84889 -3.92444
Pt 6.21725e-15 -5.88666 -3.92444
Pt 1.96222 -3.92444 -3.92444
Pt 3.92444 -1.96222 -3.92444
Pt 5.88666 -6.21725e-15 -3.92444
Pt 7.84889 1.96222 -3.92444
Pt 9.81111 3.92444 -3.92444
Pt 11.7733 5.88666 -3.92444
Pt -7.84889 -9.81111 -3.92444
Pt -5.88666 -7.84889 -3.92444
Pt -3.92444 -5.88666 -3.92444
Pt -1.96222 -3.92444 -3.92444
Pt 6.21725e-15 -1.96222 -3.92444
Pt 1.96222 -4.996e-15 -3.92444
Pt 3.92444 1.96222 -3.92444
Pt 5.88666 3.92444 -3.92444
Pt 7.84889 5.88666 -3.92444
Pt 9.81111 7.84889 -3.92444
Pt -9.81111 -7.84889 -3.92444
Pt -7.84889 -5.88666 -3.92444
Pt -5.88666 -3.92444 -3.92444
Pt -3.92444 -1.96222 -3.92444
Pt -1.96222 -5.10703e-15 -3.92444
Pt 6.32827e-15 1.96222 -3.92444
Pt 1.96222 3.92444 -3.92444
Pt 3.92444 5.88666 -3.92444
Pt 5.88666 7.84889 -3.92444
Pt 7.84889 9.81111 -3.92444
Pt -11.7733 -5.88666 -3.92444
Pt -9.81111 -3.92444 -3.92444
Pt -7.84889 -1.96222 -3.92444
Pt -5.88666 -6.21725e-15 -3.92444
Pt -3.92444 1.96222 -3.92444
Pt -1.96222 3.92444 -3.92444
Pt 6.21725e-15 5.88666 -3.92444
Pt 1.96222 7.84889 -3.92444
Pt 3.92444 9.81111 -3.92444
Pt 5.88666 11.7733 -3.92444
Pt -13.7355 -3.92444 -3.92444
Pt -11.7733 -1.96222 -3.92444
Pt -9.81111 -4.44089e-15 -3.92444
Pt -7.84889 1.96222 -3.92444
Pt -5.88666 3.92444 -3.92444
Pt -3.92444 5.88666 -3.92444
Pt -1.96222 7.84889 -3.92444
Pt 6.21725e-15 9.81111 -3.92444
Pt 1.96222 11.7733 -3.92444
Pt 3.92444 13.7355 -3.92444
Pt -15.6978 -1.96222 -3.92444
Pt -13.7355 -5.32907e-15 -3.92444
Pt -11.7733 1.96222 -3.92444
Pt -9.81111 3.92444 -3.92444
Pt -7.84889 5.88666 -3.92444
Pt -5.88666 7.84889 -3.92444
Pt -3.92444 9.81111 -3.92444
Pt -1.96222 11.7733 -3.92444
Pt 7.10543e-15 13.7355 -3.92444
Pt 1.96222 15.6978 -3.92444
Pt -17.66 -7.10543e-15 -3.92444
Pt -15.6978 1.96222 -3.92444
Pt -13.7355 3.92444 -3.92444
Pt -11.7733 5.88666 -3.92444
Pt -9.81111 7.84889 -3.92444
Pt -7.84889 9.81111 -3.92444
Pt -5.88666 11.7733 -3.92444
Pt -3.92444 13.7355 -3.92444
Pt -1.96222 15.6978 -3.92444
Pt 7.10543e-15 17.66 -3.92444
Pt -2.66454e-15 -15.6978 -5.88666
Pt 1.96222 -13.7355 -5.88666
Pt 3.92444 -11.7733 -5.88666
Pt 5.88666 -9.81111 -5.88666
Pt 7.84889 -7.84889 -5.88666
Pt 9.81111 -5.88666 -5.88666
Pt 11.7733 -3.92444 -5.88666
Pt 13.7355 -1.96222 -5.88666
Pt 15.6978 -2.66454e-15 -5.88666
Pt -1.96222 -13.7355 -5.88666
Pt -2.66454e-15 -11.7733 -5.88666
Pt 1.96222 -9.81111 -5.88666
Pt 3.92444 -7.84889 -5.88666
Pt 5.88666 -5.88666 -5.88666
Pt 7.84889 -3.92444 -5.88666
Pt 9.81111 -1.96222 -5.88666
Pt 11.7733 -8.88178e-16 -5.88666
Pt 13.7355 1.96222 -5.88666
Pt -3.92444 -11.7733 -5.88666
Pt -1.96222 -9.81111 -5.88666
Pt -2.22045e-15 -7.84889 -5.88666
Pt 1.96222 -5.88666 -5.88666
Pt 3.92444 -3.92444 -5.88666
Pt 5.88666 -1.96222 -5.88666
Pt 7.84889 -3.10862e-15 -5.88666
Pt 9.81111 1.96222 -5.88666
Pt 11.7733 3.92444 -5.88666
Pt -5.88666 -9.81111 -5.88666
Pt -3.92444 -7.84889 -5.88666
Pt -1.96222 -5.88666 -5.88666
Pt -2.44249e-15 -3.92444 -5.88666
Pt 1.96222 -1.96222 -5.88666
Pt 3.92444 -2.44249e-15 -5.88666
Pt 5.88666 1.96222 -5.88666
Pt 7.84889 3.92444 -5.88666
Pt 9.81111 5.88666 -5.88666
Pt -7.84889 -7.84889 -5.88666
Pt -5.88666 -5.88666 -5.88666
Pt -3.92444 -3.92444 -5.88666
Pt -1.96222 -1.96222 -5.88666
Pt -2.51215e-15 -2.51215e-15 -5.88666
Pt 1.96222 1.96222 -5.88666
Pt 3.92444 3.92444 -5.88666
Pt 5.88666 5.88666 -5.88666
Pt 7.84889 7.84889 -5.88666
Pt -9.81111 -5.88666 -5.88666
Pt -7.84889 -3.92444 -5.88666
Pt -5.88666 -1.96222 -5.88666
Pt -3.92444 -2.44249e-15 -5.88666
Pt -1.96222 1.96222 -5.88666
Pt -2.44249e-15 3.92444 -5.88666
Pt 1.96222 5.88666 -5.88666
Pt 3.92444 7.84889 -5.88666
Pt 5.88666 9.81111 -5.88666
Pt -11.7733 -3.92444 -5.88666
Pt -9.81111 -1.96222 -5.88666
Pt -7.84889 -3.10862e-15 -5.88666
Pt -5.88666 1.96222 -5.88666
Pt -3.92444 3.92444 -5.88666
Pt -1.96222 5.88666 -5.88666
Pt -2.22045e-15 7.84889 -5.88666
Pt 1.96222 9.81111 -5.88666
Pt 3.92444 11.7733 -5.88666
Pt -13.7355 -1.96222 -5.88666
Pt -11.7733 -1.77636e-15 -5.88666
Pt -9.81111 1.96222 -5.88666
Pt -7.84889 3.92444 -5.88666
Pt -5.88666 5.88666 -5.88666
Pt -3.92444 7.84889 -5.88666
Pt -1.96222 9.81111 -5.88666
Pt -1.77636e-15 11.7733 -5.88666
Pt 1.96222 13.7355 -5.88666
Pt -15.6978 -2.66454e-15 -5.88666
Pt -13.7355 1.96222 -5.88666
Pt -11.7733 3.92444 -5.88666
Pt -9.81111 5.88666 -5.88666
Pt -7.84889 7.84889 -5.88666
Pt -5.88666 9.81111 -5.88666
Pt -3.92444 11.7733 -5.88666
Pt -1.96222 13.7355 -5.88666
Pt -2.66454e-15 15.6978 -5.88666
Pt -3.55271e-15 -13.7355 -7.84889
Pt 1.96222 -11.7733 -7.84889
Pt 3.92444 -9.81111 -7.84889
Pt 5.88666 -7.84889 -7.84889
Pt 7.84889 -5.88666 -7.84889
Pt 9.81111 -3.92444 -7.84889
Pt 11.7733 -1.96222 -7.84889
Pt 13.7355 6.21725e-15 -7.84889
Pt -1.96222 -11.7733 -7.84889
Pt -3.55271e-15 -9.81111 -7.84889
Pt 1.96222 -7.84889 -7.84889
Pt 3.92444 -5.88666 -7.84889
Pt 5.88666 -3.92444 -7.84889
Pt 7.84889 -1.96222 -7.84889
Pt 9.81111 5.32907e-15 -7.84889
Pt 11.7733 1.96222 -7.84889
Pt -3.92444 -9.81111 -7.84889
Pt -1.96222 -7.84889 -7.84889
Pt -3.9968e-15 -5.88666 -7.84889
Pt 1.96222 -3.92444 -7.84889
Pt 3.92444 -1.96222 -7.84889
Pt 5.88666 5.77316e-15 -7.84889
Pt 7.84889 1.96222 -7.84889
Pt 9.81111 3.92444 -7.84889
Pt -5.88666 -7.84889 -7.84889
Pt -3.92444 -5.88666 -7.84889
Pt -1.96222 -3.92444 -7.84889
Pt -3.77476e-15 -1.96222 -7.84889
Pt 1.96222 4.996e-15 -7.84889
Pt 3.92444 1.96222 -7.84889
Pt 5.88666 3.92444 -7.84889
Pt 7.84889 5.88666 -7.84889
Pt -7.84889 -5.88666 -7.84889
Pt -5.88666 -3.92444 -7.84889
Pt -3.92444 -1.96222 -7.84889
Pt -1.96222 4.996e-15 -7.84889
Pt -3.77476e-15 1.96222 -7.84889
Pt 1.96222 3.92444 -7.84889
Pt 3.92444 5.88666 -7.84889
Pt 5.88666 7.84889 -7.84889
Pt -9.81111 -3.92444 -7.84889
Pt -7.84889 -1.96222 -7.84889
Pt -5.88666 5.32907e-15 -7.84889
Pt -3.92444 1.96222 -7.84889
Pt -1.96222 3.92444 -7.84889
Pt -3.55271e-15 5.88666 -7.84889
Pt 1.96222 7.84889 -7.84889
Pt 3.92444 9.81111 -7.84889
Pt -11.7733 -1.96222 -7.84889
Pt -9.81111 5.32907e-15 -7.84889
Pt -7.84889 1.96222 -7.84889
Pt -5.88666 3.92444 -7.84889
Pt -3.92444 5.88666 -7.84889
Pt -1.96222 7.84889 -7.84889
Pt -3.55271e-15 9.81111 -7.84889
Pt 1.96222 11.7733 -7.84889
Pt -13.7355 6.21725e-15 -7.84889
Pt -11.7733 1.96222 -7.84889
Pt -9.81111 3.92444 -7.84889
Pt -7.84889 5.88666 -7.84889
Pt -5.88666 7.84889 -7.84889
Pt -3.92444 9.81111 -7.84889
Pt -1.96222 11.7733 -7.84889
Pt -3.55271e-15 13.7355 -7.84889
Pt -3.55271e-15 -11.7733 -9.81111
Pt 1.96222 -9.81111 -9.81111
Pt 3.92444 -7.84889 -9.81111
Pt 5.88666 -5.88666 -9.81111
Pt 7.84889 -3.92444 -9.81111
Pt 9.81111 -1.96222 -9.81111
Pt 11.7733 -1.77636e-15 -9.81111
Pt -1.96222 -9.81111 -9.81111
Pt -3.55271e-15 -7.84889 -9.81111
Pt 1.96222 -5.88666 -9.81111
Pt 3.92444 -3.92444 -9.81111
Pt 5.88666 -1.96222 -9.81111
Pt 7.84889 0 -9.81111
Pt 9.81111 1.96222 -9.81111
Pt -3.92444 -7.84889 -9.81111
Pt -1.96222 -5.88666 -9.81111
Pt -3.77476e-15 -3.92444 -9.81111
Pt 1.96222 -1.96222 -9.81111
Pt 3.92444 -6.66134e-16 -9.81111
Pt 5.88666 1.96222 -9.81111
Pt 7.84889 3.92444 -9.81111
Pt -5.88666 -5.88666 -9.81111
Pt -3.92444 -3.92444 -9.81111
Pt -1.96222 -1.96222 -9.81111
Pt -3.76822e-15 -1.25607e-15 -9.81111
Pt 1.96222 1.96222 -9.81111
Pt 3.92444 3.92444 -9.81111
Pt 5.88666 5.88666 -9.81111
Pt -7.84889 -3.92444 -9.81111
Pt -5.88666 -1.96222 -9.81111
Pt -3.92444 -6.66134e-16 -9.81111
Pt -1.96222 1.96222 -9.81111
Pt -3.77476e-15 3.92444 -9.81111
Pt 1.96222 5.88666 -9.81111
Pt 3.92444 7.84889 -9.81111
Pt -9.81111 -1.96222 -9.81111
Pt -7.84889 0 -9.81111
Pt -5.88666 1.96222 -9.81111
Pt -3.92444 3.92444 -9.81111
Pt -1.96222 5.88666 -9.81111
Pt -3.55271e-15 7.84889 -9.81111
Pt 1.96222 9.81111 -9.81111
Pt -11.7733 -1.77636e-15 -9.81111
Pt -9.81111 1.96222 -9.81111
Pt -7.84889 3.92444 -9.81111
Pt -5.88666 5.88666 -9.81111
Pt -3.92444 7.84889 -9.81111
Pt -1.96222 9.81111 -9.81111
Pt -3.55271e-15 11.7733 -9.81111
