128
Au Pt -721.311 0
Pt 2.65299 7.19869e-13 11.5889
Pt -1.46342 1.32204 13.298
Pt -1.46342 -1.32204 13.298
Pt 1.18051 1.32204 13.3261
Pt 1.18051 -1.32204 13.3261
Pt -2.89865 -7.19869e-13 11.5299
Pt -0.12283 2.77597 11.5594
Pt -0.12283 -2.77597 11.5594
Pt -6.69251 3.9896 5.70474
Pt -6.7765 1.33672 5.70436
Pt -6.7765 -1.33672 5.70436
Pt -6.69251 -3.9896 5.70474
Pt -4.05075 6.63152 5.73281
Pt -4.08485 4.02368 5.73553
Pt -4.16623 1.33931 5.74679
Pt -4.16623 -1.33931 5.74679
Pt -4.08485 -4.02368 5.73553
Pt -4.05075 -6.63152 5.73281
Pt -1.39802 6.7155 5.76152
Pt -1.40076 4.10494 5.77618
Pt -1.41746 1.35575 5.80015
Pt -1.41746 -1.35575 5.80015
Pt -1.40076 -4.10494 5.77618
Pt -1.39802 -6.7155 5.76152
Pt 1.27527 6.7155 5.78992
Pt 1.2777 4.10494 5.80464
Pt 1.29389 1.35575 5.82896
Pt 1.29389 -1.35575 5.82896
Pt 1.2777 -4.10494 5.80464
Pt 1.27527 -6.7155 5.78992
Pt 3.92801 6.63152 5.81759
Pt 3.96205 4.02368 5.82103
Pt 4.04318 1.33931 5.83402
Pt 4.04318 -1.33931 5.83402
Pt 3.96205 -4.02368 5.82103
Pt 3.92801 -6.63152 5.81759
Pt 6.56978 3.9896 5.84566
Pt 6.65375 1.33672 5.84707
Pt 6.65375 -1.33672 5.84707
Pt 6.56978 -3.9896 5.84566
Pt -5.39544 5.31452 7.58703
Pt -5.53993 2.68857 7.68435
Pt -5.55977 -1.42064e-12 7.67847
Pt -5.53993 -2.68857 7.68435
Pt -5.39544 -5.31452 7.58703
Pt -2.77069 5.45797 7.71378
Pt -2.81372 2.73147 7.72619
Pt -2.85062 -7.17648e-13 7.73228
Pt -2.81372 -2.73147 7.72619
Pt -2.77069 -5.45797 7.71378
Pt -0.0822101 5.47787 7.73668
Pt -0.082476 2.7683 7.7617
Pt -0.0824085 0 7.75535
Pt -0.082476 -2.7683 7.7617
Pt -0.0822101 -5.47787 7.73668
Pt 2.60615 5.45797 7.77092
Pt 2.64891 2.73147 7.78424
Pt 2.68567 7.17648e-13 7.79111
Pt 2.64891 -2.73147 7.78424
Pt 2.60615 -5.45797 7.77092
Pt 5.233 5.31452 7.69997
Pt 5.37539 2.68857 7.80034
Pt 5.39535 1.42064e-12 7.79488
Pt 5.37539 -2.68857 7.80034
Pt 5.233 -5.31452 7.69997
Pt -4.13985 4.0381 9.55462
Pt -4.22458 1.36514 9.62645
Pt -4.22458 -1.36514 9.62645
Pt -4.13985 -4.0381 9.55462
Pt -1.46782 4.12206 9.65574
Pt -1.49309 1.39047 9.65028
Pt -1.49309 -1.39047 9.65028
Pt -1.46782 -4.12206 9.65574
Pt 1.26231 4.12206 9.68475
Pt 1.28769 1.39047 9.67983
Pt 1.28769 -1.39047 9.67983
Pt 1.26231 -4.12206 9.68475
Pt 3.93589 4.0381 9.64043
Pt 4.01907 1.36514 9.71404
Pt 4.01907 -1.36514 9.71404
Pt 3.93589 -4.0381 9.64043
Pt -2.82066 2.69859 11.4738
Pt -2.82066 -2.69859 11.4738
Pt -0.122143 0 11.4947
Pt 2.57621 2.69859 11.5311
Pt 2.57621 -2.69859 11.5311
Pt -5.35443 5.31319 3.8533
Pt -5.48405 2.67821 3.75745
Pt -5.48201 -1.41132e-12 3.76314
Pt -5.48405 -2.67821 3.75745
Pt -5.35443 -5.31319 3.8533
Pt -2.7186 5.44382 3.78683
Pt -2.73906 2.69843 3.80925
Pt -2.74998 -7.02549e-13 3.79942
Pt -2.73906 -2.69843 3.80925
Pt -2.7186 -5.44382 3.78683
Pt -0.0406016 5.44172 3.82096
Pt -0.0406786 2.70945 3.82821
Pt -0.0403886 0 3.80092
Pt -0.0406786 -2.70945 3.82821
Pt -0.0406016 -5.44172 3.82096
Pt 2.63752 5.44382 3.84375
Pt 2.6575 2.69843 3.8666
Pt 2.66862 7.02549e-13 3.857
Pt 2.6575 -2.69843 3.8666
Pt 2.63752 -5.44382 3.84375
Pt 5.27134 5.31319 3.96621
Pt 5.40297 2.67821 3.87313
Pt 5.40081 1.41132e-12 3.87878
Pt 5.40297 -2.67821 3.87313
Pt 5.27134 -5.31319 3.96621
Pt -4.02884 4.00749 1.9881
Pt -4.05729 1.34419 1.92506
Pt -4.05729 -1.34419 1.92506
Pt -4.02884 -4.00749 1.9881
Pt -1.36503 4.0366 1.95367
Pt -1.38106 1.36117 1.86535
Pt -1.38106 -1.36117 1.86535
Pt -1.36503 -4.0366 1.95367
Pt 1.32321 4.0366 1.98223
Pt 1.34112 1.36117 1.89428
Pt 1.34112 -1.36117 1.89428
Pt 1.32321 -4.0366 1.98223
Pt 3.98568 4.00749 2.07326
Pt 4.01546 1.34419 2.01084
Pt 4.01546 -1.34419 2.01084
Pt 3.98568 -4.00749 2.07326
Au 2.20741 0 0