         559
 AuPt
Pt         5.904211      -11.762769       -1.098702
Pt         7.866441       -9.800579       -1.098702
Pt         9.828661       -7.838359       -1.098702
Pt        11.790851       -5.876129       -1.098702
Pt         1.979771      -11.762769       -1.098702
Pt         3.941991       -9.800579       -1.098702
Pt         5.904211       -7.838359       -1.098702
Pt         7.866441       -5.876129       -1.098702
Pt         9.828661       -3.913909       -1.098702
Pt        11.790851       -1.951689       -1.098702
Pt        -1.944669      -11.762769       -1.098702
Pt         0.017551       -9.800579       -1.098702
Pt         1.979771       -7.838359       -1.098702
Pt         3.941991       -5.876129       -1.098702
Pt         5.904211       -3.913909       -1.098702
Pt         7.866441       -1.951689       -1.098702
Pt         9.828661        0.010531       -1.098702
Pt        11.790851        1.972751       -1.098702
Pt        -5.869109      -11.762769       -1.098702
Pt        -3.906889       -9.800579       -1.098702
Pt        -1.944669       -7.838359       -1.098702
Pt         0.017551       -5.876129       -1.098702
Pt         1.979771       -3.913909       -1.098702
Pt         3.941991       -1.951689       -1.098702
Pt         5.904211        0.010531       -1.098702
Pt         7.866441        1.972751       -1.098702
Pt         9.828661        3.934971       -1.098702
Pt        11.790851        5.897191       -1.098702
Pt        -7.831339       -9.800579       -1.098702
Pt        -5.869109       -7.838359       -1.098702
Pt        -3.906889       -5.876129       -1.098702
Pt        -1.944669       -3.913909       -1.098702
Pt         0.017551       -1.951689       -1.098702
Pt         1.979771        0.010531       -1.098702
Pt         3.941991        1.972751       -1.098702
Pt         5.904211        3.934971       -1.098702
Pt         7.866441        5.897191       -1.098702
Pt         9.828661        7.859421       -1.098702
Pt        -9.793559       -7.838359       -1.098702
Pt        -7.831339       -5.876129       -1.098702
Pt        -5.869109       -3.913909       -1.098702
Pt        -3.906889       -1.951689       -1.098702
Pt        -1.944669        0.010531       -1.098702
Pt         0.017551        1.972751       -1.098702
Pt         1.979771        3.934971       -1.098702
Pt         3.941991        5.897191       -1.098702
Pt         5.904211        7.859421       -1.098702
Pt         7.866441        9.821641       -1.098702
Pt       -11.755749       -5.876129       -1.098702
Pt        -9.793559       -3.913909       -1.098702
Pt        -7.831339       -1.951689       -1.098702
Pt        -5.869109        0.010531       -1.098702
Pt        -3.906889        1.972751       -1.098702
Pt        -1.944669        3.934971       -1.098702
Pt         0.017551        5.897191       -1.098702
Pt         1.979771        7.859421       -1.098702
Pt         3.941991        9.821641       -1.098702
Pt         5.904211       11.783831       -1.098702
Pt       -11.755749       -1.951689       -1.098702
Pt        -9.793559        0.010531       -1.098702
Pt        -7.831339        1.972751       -1.098702
Pt        -5.869109        3.934971       -1.098702
Pt        -3.906889        5.897191       -1.098702
Pt        -1.944669        7.859421       -1.098702
Pt         0.017551        9.821641       -1.098702
Pt         1.979771       11.783831       -1.098702
Pt       -11.755749        1.972751       -1.098702
Pt        -9.793559        3.934971       -1.098702
Pt        -7.831339        5.897191       -1.098702
Pt        -5.869109        7.859421       -1.098702
Pt        -3.906889        9.821641       -1.098702
Pt        -1.944669       11.783831       -1.098702
Pt       -11.755749        5.897191       -1.098702
Pt        -9.793559        7.859421       -1.098702
Pt        -7.831339        9.821641       -1.098702
Pt        -5.869109       11.783831       -1.098702
Pt         3.941991      -11.762769        0.863518
Pt         5.904211       -9.800579        0.863518
Pt         7.866441       -7.838359        0.863518
Pt         9.828661       -5.876129        0.863518
Pt        11.790851       -3.913909        0.863518
Pt         0.017551      -11.762769        0.863518
Pt         1.979771       -9.800579        0.863518
Pt         3.941991       -7.838359        0.863518
Pt         5.904211       -5.876129        0.863518
Pt         7.866441       -3.913909        0.863518
Pt         9.828661       -1.951689        0.863518
Pt        11.790851        0.010531        0.863518
Pt        -3.906889      -11.762769        0.863518
Pt        -1.944669       -9.800579        0.863518
Pt         0.017551       -7.838359        0.863518
Pt         1.979771       -5.876129        0.863518
Pt         3.941991       -3.913909        0.863518
Pt         5.904211       -1.951689        0.863518
Pt         7.866441        0.010531        0.863518
Pt         9.828661        1.972751        0.863518
Pt        11.790851        3.934971        0.863518
Pt        -5.869109       -9.800579        0.863518
Pt        -3.906889       -7.838359        0.863518
Pt        -1.944669       -5.876129        0.863518
Pt         0.017551       -3.913909        0.863518
Pt         1.979771       -1.951689        0.863518
Pt         3.941991        0.010531        0.863518
Pt         5.904211        1.972751        0.863518
Pt         7.866441        3.934971        0.863518
Pt         9.828661        5.897191        0.863518
Pt        -7.831339       -7.838359        0.863518
Pt        -5.869109       -5.876129        0.863518
Pt        -3.906889       -3.913909        0.863518
Pt        -1.944669       -1.951689        0.863518
Pt         0.017551        0.010531        0.863518
Pt         1.979771        1.972751        0.863518
Pt         3.941991        3.934971        0.863518
Pt         5.904211        5.897191        0.863518
Pt         7.866441        7.859421        0.863518
Pt        -9.793559       -5.876129        0.863518
Pt        -7.831339       -3.913909        0.863518
Pt        -5.869109       -1.951689        0.863518
Pt        -3.906889        0.010531        0.863518
Pt        -1.944669        1.972751        0.863518
Pt         0.017551        3.934971        0.863518
Pt         1.979771        5.897191        0.863518
Pt         3.941991        7.859421        0.863518
Pt         5.904211        9.821641        0.863518
Pt       -11.755749       -3.913909        0.863518
Pt        -9.793559       -1.951689        0.863518
Pt        -7.831339        0.010531        0.863518
Pt        -5.869109        1.972751        0.863518
Pt        -3.906889        3.934971        0.863518
Pt        -1.944669        5.897191        0.863518
Pt         0.017551        7.859421        0.863518
Pt         1.979771        9.821641        0.863518
Pt         3.941991       11.783831        0.863518
Pt       -11.755749        0.010531        0.863518
Pt        -9.793559        1.972751        0.863518
Pt        -7.831339        3.934971        0.863518
Pt        -5.869109        5.897191        0.863518
Pt        -3.906889        7.859421        0.863518
Pt        -1.944669        9.821641        0.863518
Pt         0.017551       11.783831        0.863518
Pt       -11.755749        3.934971        0.863518
Pt        -9.793559        5.897191        0.863518
Pt        -7.831339        7.859421        0.863518
Pt        -5.869109        9.821641        0.863518
Pt        -3.906889       11.783831        0.863518
Pt         1.979771      -11.762769        2.825738
Pt         3.941991       -9.800579        2.825738
Pt         5.904211       -7.838359        2.825738
Pt         7.866441       -5.876129        2.825738
Pt         9.828661       -3.913909        2.825738
Pt        11.790851       -1.951689        2.825738
Pt        -1.944669      -11.762769        2.825738
Pt         0.017551       -9.800579        2.825738
Pt         1.979771       -7.838359        2.825738
Pt         3.941991       -5.876129        2.825738
Pt         5.904211       -3.913909        2.825738
Pt         7.866441       -1.951689        2.825738
Pt         9.828661        0.010531        2.825738
Pt        11.790851        1.972751        2.825738
Pt        -3.906889       -9.800579        2.825738
Pt        -1.944669       -7.838359        2.825738
Pt         0.017551       -5.876129        2.825738
Pt         1.979771       -3.913909        2.825738
Pt         3.941991       -1.951689        2.825738
Pt         5.904211        0.010531        2.825738
Pt         7.866441        1.972751        2.825738
Pt         9.828661        3.934971        2.825738
Pt        -5.869109       -7.838359        2.825738
Pt        -3.906889       -5.876129        2.825738
Pt        -1.944669       -3.913909        2.825738
Pt         0.017551       -1.951689        2.825738
Pt         1.979771        0.010531        2.825738
Pt         3.941991        1.972751        2.825738
Pt         5.904211        3.934971        2.825738
Pt         7.866441        5.897191        2.825738
Pt        -7.831339       -5.876129        2.825738
Pt        -5.869109       -3.913909        2.825738
Pt        -3.906889       -1.951689        2.825738
Pt        -1.944669        0.010531        2.825738
Pt         0.017551        1.972751        2.825738
Pt         1.979771        3.934971        2.825738
Pt         3.941991        5.897191        2.825738
Pt         5.904211        7.859421        2.825738
Pt        -9.793559       -3.913909        2.825738
Pt        -7.831339       -1.951689        2.825738
Pt        -5.869109        0.010531        2.825738
Pt        -3.906889        1.972751        2.825738
Pt        -1.944669        3.934971        2.825738
Pt         0.017551        5.897191        2.825738
Pt         1.979771        7.859421        2.825738
Pt         3.941991        9.821641        2.825738
Pt       -11.755749       -1.951689        2.825738
Pt        -9.793559        0.010531        2.825738
Pt        -7.831339        1.972751        2.825738
Pt        -5.869109        3.934971        2.825738
Pt        -3.906889        5.897191        2.825738
Pt        -1.944669        7.859421        2.825738
Pt         0.017551        9.821641        2.825738
Pt         1.979771       11.783831        2.825738
Pt       -11.755749        1.972751        2.825738
Pt        -9.793559        3.934971        2.825738
Pt        -7.831339        5.897191        2.825738
Pt        -5.869109        7.859421        2.825738
Pt        -3.906889        9.821641        2.825738
Pt        -1.944669       11.783831        2.825738
Pt         0.017551      -11.762769        4.787958
Pt         1.979771       -9.800579        4.787958
Pt         3.941991       -7.838359        4.787958
Pt         5.904211       -5.876129        4.787958
Pt         7.866441       -3.913909        4.787958
Pt         9.828661       -1.951689        4.787958
Pt        11.790851        0.010531        4.787958
Pt        -1.944669       -9.800579        4.787958
Pt         0.017551       -7.838359        4.787958
Pt         1.979771       -5.876129        4.787958
Pt         3.941991       -3.913909        4.787958
Pt         5.904211       -1.951689        4.787958
Pt         7.866441        0.010531        4.787958
Pt         9.828661        1.972751        4.787958
Pt        -3.906889       -7.838359        4.787958
Pt        -1.944669       -5.876129        4.787958
Pt         0.017551       -3.913909        4.787958
Pt         1.979771       -1.951689        4.787958
Pt         3.941991        0.010531        4.787958
Pt         5.904211        1.972751        4.787958
Pt         7.866441        3.934971        4.787958
Pt        -5.869109       -5.876129        4.787958
Pt        -3.906889       -3.913909        4.787958
Pt        -1.944669       -1.951689        4.787958
Pt         0.017551        0.010531        4.787958
Pt         1.979771        1.972751        4.787958
Pt         3.941991        3.934971        4.787958
Pt         5.904211        5.897191        4.787958
Pt        -7.831339       -3.913909        4.787958
Pt        -5.869109       -1.951689        4.787958
Pt        -3.906889        0.010531        4.787958
Pt        -1.944669        1.972751        4.787958
Pt         0.017551        3.934971        4.787958
Pt         1.979771        5.897191        4.787958
Pt         3.941991        7.859421        4.787958
Pt        -9.793559       -1.951689        4.787958
Pt        -7.831339        0.010531        4.787958
Pt        -5.869109        1.972751        4.787958
Pt        -3.906889        3.934971        4.787958
Pt        -1.944669        5.897191        4.787958
Pt         0.017551        7.859421        4.787958
Pt         1.979771        9.821641        4.787958
Pt       -11.755749        0.010531        4.787958
Pt        -9.793559        1.972751        4.787958
Pt        -7.831339        3.934971        4.787958
Pt        -5.869109        5.897191        4.787958
Pt        -3.906889        7.859421        4.787958
Pt        -1.944669        9.821641        4.787958
Pt         0.017551       11.783831        4.787958
Pt         0.017551       -9.800579        6.750188
Pt         1.979771       -7.838359        6.750188
Pt         3.941991       -5.876129        6.750188
Pt         5.904211       -3.913909        6.750188
Pt         7.866441       -1.951689        6.750188
Pt         9.828661        0.010531        6.750188
Pt        -1.944669       -7.838359        6.750188
Pt         0.017551       -5.876129        6.750188
Pt         1.979771       -3.913909        6.750188
Pt         3.941991       -1.951689        6.750188
Pt         5.904211        0.010531        6.750188
Pt         7.866441        1.972751        6.750188
Pt        -3.906889       -5.876129        6.750188
Pt        -1.944669       -3.913909        6.750188
Pt         0.017551       -1.951689        6.750188
Pt         1.979771        0.010531        6.750188
Pt         3.941991        1.972751        6.750188
Pt         5.904211        3.934971        6.750188
Pt        -5.869109       -3.913909        6.750188
Pt        -3.906889       -1.951689        6.750188
Pt        -1.944669        0.010531        6.750188
Pt         0.017551        1.972751        6.750188
Pt         1.979771        3.934971        6.750188
Pt         3.941991        5.897191        6.750188
Pt        -7.831339       -1.951689        6.750188
Pt        -5.869109        0.010531        6.750188
Pt        -3.906889        1.972751        6.750188
Pt        -1.944669        3.934971        6.750188
Pt         0.017551        5.897191        6.750188
Pt         1.979771        7.859421        6.750188
Pt        -9.793559        0.010531        6.750188
Pt        -7.831339        1.972751        6.750188
Pt        -5.869109        3.934971        6.750188
Pt        -3.906889        5.897191        6.750188
Pt        -1.944669        7.859421        6.750188
Pt         0.017551        9.821641        6.750188
Pt         0.017551       -7.838359        8.712408
Pt         1.979771       -5.876129        8.712408
Pt         3.941991       -3.913909        8.712408
Pt         5.904211       -1.951689        8.712408
Pt         7.866441        0.010531        8.712408
Pt        -1.944669       -5.876129        8.712408
Pt         0.017551       -3.913909        8.712408
Pt         1.979771       -1.951689        8.712408
Pt         3.941991        0.010531        8.712408
Pt         5.904211        1.972751        8.712408
Pt        -3.906889       -3.913909        8.712408
Pt        -1.944669       -1.951689        8.712408
Pt         0.017551        0.010531        8.712408
Pt         1.979771        1.972751        8.712408
Pt         3.941991        3.934971        8.712408
Pt        -5.869109       -1.951689        8.712408
Pt        -3.906889        0.010531        8.712408
Pt        -1.944669        1.972751        8.712408
Pt         0.017551        3.934971        8.712408
Pt         1.979771        5.897191        8.712408
Pt        -7.831339        0.010531        8.712408
Pt        -5.869109        1.972751        8.712408
Pt        -3.906889        3.934971        8.712408
Pt        -1.944669        5.897191        8.712408
Pt         0.017551        7.859421        8.712408
Pt         0.017551       -5.876129       10.674598
Pt         1.979771       -3.913909       10.674598
Pt         3.941991       -1.951689       10.674598
Pt         5.904211        0.010531       10.674598
Pt        -1.944669       -3.913909       10.674598
Pt         0.017551       -1.951689       10.674598
Pt         1.979771        0.010531       10.674598
Pt         3.941991        1.972751       10.674598
Pt        -3.906889       -1.951689       10.674598
Pt        -1.944669        0.010531       10.674598
Pt         0.017551        1.972751       10.674598
Pt         1.979771        3.934971       10.674598
Pt        -5.869109        0.010531       10.674598
Pt        -3.906889        1.972751       10.674598
Pt        -1.944669        3.934971       10.674598
Pt         0.017551        5.897191       10.674598
Pt         0.017551       -3.913909       12.636798
Pt         1.979771       -1.951689       12.636798
Pt         3.941991        0.010531       12.636798
Pt        -1.944669       -1.951689       12.636798
Pt         0.017551        0.010531       12.636798
Pt         1.979771        1.972751       12.636798
Pt        -3.906889        0.010531       12.636798
Pt        -1.944669        1.972751       12.636798
Pt         0.017551        3.934971       12.636798
Pt         0.017551       -1.951689       14.599098
Pt         1.979771        0.010531       14.599098
Pt        -1.944669        0.010531       14.599098
Pt         0.017551        1.972751       14.599098
Pt         3.941991      -11.762769       -3.060922
Pt         5.904211       -9.800579       -3.060922
Pt         7.866441       -7.838359       -3.060922
Pt         9.828661       -5.876129       -3.060922
Pt        11.790851       -3.913909       -3.060922
Pt         0.017551      -11.762769       -3.060922
Pt         1.979771       -9.800579       -3.060922
Pt         3.941991       -7.838359       -3.060922
Pt         5.904211       -5.876129       -3.060922
Pt         7.866441       -3.913909       -3.060922
Pt         9.828661       -1.951689       -3.060922
Pt        11.790851        0.010531       -3.060922
Pt        -3.906889      -11.762769       -3.060922
Pt        -1.944669       -9.800579       -3.060922
Pt         0.017551       -7.838359       -3.060922
Pt         1.979771       -5.876129       -3.060922
Pt         3.941991       -3.913909       -3.060922
Pt         5.904211       -1.951689       -3.060922
Pt         7.866441        0.010531       -3.060922
Pt         9.828661        1.972751       -3.060922
Pt        11.790851        3.934971       -3.060922
Pt        -5.869109       -9.800579       -3.060922
Pt        -3.906889       -7.838359       -3.060922
Pt        -1.944669       -5.876129       -3.060922
Pt         0.017551       -3.913909       -3.060922
Pt         1.979771       -1.951689       -3.060922
Pt         3.941991        0.010531       -3.060922
Pt         5.904211        1.972751       -3.060922
Pt         7.866441        3.934971       -3.060922
Pt         9.828661        5.897191       -3.060922
Pt        -7.831339       -7.838359       -3.060922
Pt        -5.869109       -5.876129       -3.060922
Pt        -3.906889       -3.913909       -3.060922
Pt        -1.944669       -1.951689       -3.060922
Pt         0.017551        0.010531       -3.060922
Pt         1.979771        1.972751       -3.060922
Pt         3.941991        3.934971       -3.060922
Pt         5.904211        5.897191       -3.060922
Pt         7.866441        7.859421       -3.060922
Pt        -9.793559       -5.876129       -3.060922
Pt        -7.831339       -3.913909       -3.060922
Pt        -5.869109       -1.951689       -3.060922
Pt        -3.906889        0.010531       -3.060922
Pt        -1.944669        1.972751       -3.060922
Pt         0.017551        3.934971       -3.060922
Pt         1.979771        5.897191       -3.060922
Pt         3.941991        7.859421       -3.060922
Pt         5.904211        9.821641       -3.060922
Pt       -11.755749       -3.913909       -3.060922
Pt        -9.793559       -1.951689       -3.060922
Pt        -7.831339        0.010531       -3.060922
Pt        -5.869109        1.972751       -3.060922
Pt        -3.906889        3.934971       -3.060922
Pt        -1.944669        5.897191       -3.060922
Pt         0.017551        7.859421       -3.060922
Pt         1.979771        9.821641       -3.060922
Pt         3.941991       11.783831       -3.060922
Pt       -11.755749        0.010531       -3.060922
Pt        -9.793559        1.972751       -3.060922
Pt        -7.831339        3.934971       -3.060922
Pt        -5.869109        5.897191       -3.060922
Pt        -3.906889        7.859421       -3.060922
Pt        -1.944669        9.821641       -3.060922
Pt         0.017551       11.783831       -3.060922
Pt       -11.755749        3.934971       -3.060922
Pt        -9.793559        5.897191       -3.060922
Pt        -7.831339        7.859421       -3.060922
Pt        -5.869109        9.821641       -3.060922
Pt        -3.906889       11.783831       -3.060922
Pt         1.979771      -11.762769       -5.023142
Pt         3.941991       -9.800579       -5.023142
Pt         5.904211       -7.838359       -5.023142
Pt         7.866441       -5.876129       -5.023142
Pt         9.828661       -3.913909       -5.023142
Pt        11.790851       -1.951689       -5.023142
Pt        -1.944669      -11.762769       -5.023142
Pt         0.017551       -9.800579       -5.023142
Pt         1.979771       -7.838359       -5.023142
Pt         3.941991       -5.876129       -5.023142
Pt         5.904211       -3.913909       -5.023142
Pt         7.866441       -1.951689       -5.023142
Pt         9.828661        0.010531       -5.023142
Pt        11.790851        1.972751       -5.023142
Pt        -3.906889       -9.800579       -5.023142
Pt        -1.944669       -7.838359       -5.023142
Pt         0.017551       -5.876129       -5.023142
Pt         1.979771       -3.913909       -5.023142
Pt         3.941991       -1.951689       -5.023142
Pt         5.904211        0.010531       -5.023142
Pt         7.866441        1.972751       -5.023142
Pt         9.828661        3.934971       -5.023142
Pt        -5.869109       -7.838359       -5.023142
Pt        -3.906889       -5.876129       -5.023142
Pt        -1.944669       -3.913909       -5.023142
Pt         0.017551       -1.951689       -5.023142
Pt         1.979771        0.010531       -5.023142
Pt         3.941991        1.972751       -5.023142
Pt         5.904211        3.934971       -5.023142
Pt         7.866441        5.897191       -5.023142
Pt        -7.831339       -5.876129       -5.023142
Pt        -5.869109       -3.913909       -5.023142
Pt        -3.906889       -1.951689       -5.023142
Pt        -1.944669        0.010531       -5.023142
Pt         0.017551        1.972751       -5.023142
Pt         1.979771        3.934971       -5.023142
Pt         3.941991        5.897191       -5.023142
Pt         5.904211        7.859421       -5.023142
Pt        -9.793559       -3.913909       -5.023142
Pt        -7.831339       -1.951689       -5.023142
Pt        -5.869109        0.010531       -5.023142
Pt        -3.906889        1.972751       -5.023142
Pt        -1.944669        3.934971       -5.023142
Pt         0.017551        5.897191       -5.023142
Pt         1.979771        7.859421       -5.023142
Pt         3.941991        9.821641       -5.023142
Pt       -11.755749       -1.951689       -5.023142
Pt        -9.793559        0.010531       -5.023142
Pt        -7.831339        1.972751       -5.023142
Pt        -5.869109        3.934971       -5.023142
Pt        -3.906889        5.897191       -5.023142
Pt        -1.944669        7.859421       -5.023142
Pt         0.017551        9.821641       -5.023142
Pt         1.979771       11.783831       -5.023142
Pt       -11.755749        1.972751       -5.023142
Pt        -9.793559        3.934971       -5.023142
Pt        -7.831339        5.897191       -5.023142
Pt        -5.869109        7.859421       -5.023142
Pt        -3.906889        9.821641       -5.023142
Pt        -1.944669       11.783831       -5.023142
Pt         0.017551      -11.762769       -6.985362
Pt         1.979771       -9.800579       -6.985362
Pt         3.941991       -7.838359       -6.985362
Pt         5.904211       -5.876129       -6.985362
Pt         7.866441       -3.913909       -6.985362
Pt         9.828661       -1.951689       -6.985362
Pt        11.790851        0.010531       -6.985362
Pt        -1.944669       -9.800579       -6.985362
Pt         0.017551       -7.838359       -6.985362
Pt         1.979771       -5.876129       -6.985362
Pt         3.941991       -3.913909       -6.985362
Pt         5.904211       -1.951689       -6.985362
Pt         7.866441        0.010531       -6.985362
Pt         9.828661        1.972751       -6.985362
Pt        -3.906889       -7.838359       -6.985362
Pt        -1.944669       -5.876129       -6.985362
Pt         0.017551       -3.913909       -6.985362
Pt         1.979771       -1.951689       -6.985362
Pt         3.941991        0.010531       -6.985362
Pt         5.904211        1.972751       -6.985362
Pt         7.866441        3.934971       -6.985362
Pt        -5.869109       -5.876129       -6.985362
Pt        -3.906889       -3.913909       -6.985362
Pt        -1.944669       -1.951689       -6.985362
Pt         0.017551        0.010531       -6.985362
Pt         1.979771        1.972751       -6.985362
Pt         3.941991        3.934971       -6.985362
Pt         5.904211        5.897191       -6.985362
Pt        -7.831339       -3.913909       -6.985362
Pt        -5.869109       -1.951689       -6.985362
Pt        -3.906889        0.010531       -6.985362
Pt        -1.944669        1.972751       -6.985362
Pt         0.017551        3.934971       -6.985362
Pt         1.979771        5.897191       -6.985362
Pt         3.941991        7.859421       -6.985362
Pt        -9.793559       -1.951689       -6.985362
Pt        -7.831339        0.010531       -6.985362
Pt        -5.869109        1.972751       -6.985362
Pt        -3.906889        3.934971       -6.985362
Pt        -1.944669        5.897191       -6.985362
Pt         0.017551        7.859421       -6.985362
Pt         1.979771        9.821641       -6.985362
Pt       -11.755749        0.010531       -6.985362
Pt        -9.793559        1.972751       -6.985362
Pt        -7.831339        3.934971       -6.985362
Pt        -5.869109        5.897191       -6.985362
Pt        -3.906889        7.859421       -6.985362
Pt        -1.944669        9.821641       -6.985362
Pt         0.017551       11.783831       -6.985362
Pt         0.017551       -9.800579       -8.947592
Pt         1.979771       -7.838359       -8.947592
Pt         3.941991       -5.876129       -8.947592
Pt         5.904211       -3.913909       -8.947592
Pt         7.866441       -1.951689       -8.947592
Pt         9.828661        0.010531       -8.947592
Pt        -1.944669       -7.838359       -8.947592
Pt         0.017551       -5.876129       -8.947592
Pt         1.979771       -3.913909       -8.947592
Pt         3.941991       -1.951689       -8.947592
Pt         5.904211        0.010531       -8.947592
Pt         7.866441        1.972751       -8.947592
Pt        -3.906889       -5.876129       -8.947592
Pt        -1.944669       -3.913909       -8.947592
Pt         0.017551       -1.951689       -8.947592
Pt         1.979771        0.010531       -8.947592
Pt         3.941991        1.972751       -8.947592
Pt         5.904211        3.934971       -8.947592
Pt        -5.869109       -3.913909       -8.947592
Pt        -3.906889       -1.951689       -8.947592
Pt        -1.944669        0.010531       -8.947592
Pt         0.017551        1.972751       -8.947592
Pt         1.979771        3.934971       -8.947592
Pt         3.941991        5.897191       -8.947592
Pt        -7.831339       -1.951689       -8.947592
Pt        -5.869109        0.010531       -8.947592
Pt        -3.906889        1.972751       -8.947592
Pt        -1.944669        3.934971       -8.947592
Pt         0.017551        5.897191       -8.947592
Pt         1.979771        7.859421       -8.947592
Pt        -9.793559        0.010531       -8.947592
Pt        -7.831339        1.972751       -8.947592
Pt        -5.869109        3.934971       -8.947592
Pt        -3.906889        5.897191       -8.947592
Pt        -1.944669        7.859421       -8.947592
Pt         0.017551        9.821641       -8.947592
Au        -9.793559       -5.876129       -6.985362
