         128
 AuPt
Pt         1.931560       -7.802900       -0.689843
Pt         3.893780       -5.840670       -0.689843
Pt         5.856000       -3.878450       -0.689843
Pt         7.818230       -1.916230       -0.689843
Pt        -1.992880       -7.802900       -0.689843
Pt        -0.030660       -5.840670       -0.689843
Pt         1.931560       -3.878450       -0.689843
Pt         3.893780       -1.916230       -0.689843
Pt         5.856000        0.045990       -0.689843
Pt         7.818230        2.008210       -0.689843
Pt        -3.955100       -5.840670       -0.689843
Pt        -1.992880       -3.878450       -0.689843
Pt        -0.030660       -1.916230       -0.689843
Pt         1.931560        0.045990       -0.689843
Pt         3.893780        2.008210       -0.689843
Pt         5.856000        3.970430       -0.689843
Pt        -5.917320       -3.878450       -0.689843
Pt        -3.955100       -1.916230       -0.689843
Pt        -1.992880        0.045990       -0.689843
Pt        -0.030660        2.008210       -0.689843
Pt         1.931560        3.970430       -0.689843
Pt         3.893780        5.932650       -0.689843
Pt        -7.879550       -1.916230       -0.689843
Pt        -5.917320        0.045990       -0.689843
Pt        -3.955100        2.008210       -0.689843
Pt        -1.992880        3.970430       -0.689843
Pt        -0.030660        5.932650       -0.689843
Pt         1.931560        7.894880       -0.689843
Pt        -7.879550        2.008210       -0.689843
Pt        -5.917320        3.970430       -0.689843
Pt        -3.955100        5.932650       -0.689843
Pt        -1.992880        7.894880       -0.689843
Pt        -0.030660       -7.802900        1.272377
Pt         1.931560       -5.840670        1.272377
Pt         3.893780       -3.878450        1.272377
Pt         5.856000       -1.916230        1.272377
Pt         7.818230        0.045990        1.272377
Pt        -1.992880       -5.840670        1.272377
Pt        -0.030660       -3.878450        1.272377
Pt         1.931560       -1.916230        1.272377
Pt         3.893780        0.045990        1.272377
Pt         5.856000        2.008210        1.272377
Pt        -3.955100       -3.878450        1.272377
Pt        -1.992880       -1.916230        1.272377
Pt        -0.030660        0.045990        1.272377
Pt         1.931560        2.008210        1.272377
Pt         3.893780        3.970430        1.272377
Pt        -5.917320       -1.916230        1.272377
Pt        -3.955100        0.045990        1.272377
Pt        -1.992880        2.008210        1.272377
Pt        -0.030660        3.970430        1.272377
Pt         1.931560        5.932650        1.272377
Pt        -7.879550        0.045990        1.272377
Pt        -5.917320        2.008210        1.272377
Pt        -3.955100        3.970430        1.272377
Pt        -1.992880        5.932650        1.272377
Pt        -0.030660        7.894880        1.272377
Pt        -0.030660       -5.840670        3.234597
Pt         1.931560       -3.878450        3.234597
Pt         3.893780       -1.916230        3.234597
Pt         5.856000        0.045990        3.234597
Pt        -1.992880       -3.878450        3.234597
Pt        -0.030660       -1.916230        3.234597
Pt         1.931560        0.045990        3.234597
Pt         3.893780        2.008210        3.234597
Pt        -3.955100       -1.916230        3.234597
Pt        -1.992880        0.045990        3.234597
Pt        -0.030660        2.008210        3.234597
Pt         1.931560        3.970430        3.234597
Pt        -5.917320        0.045990        3.234597
Pt        -3.955100        2.008210        3.234597
Pt        -1.992880        3.970430        3.234597
Pt        -0.030660        5.932650        3.234597
Pt        -0.030660       -3.878450        5.196817
Pt         1.931560       -1.916230        5.196817
Pt         3.893780        0.045990        5.196817
Pt        -1.992880       -1.916230        5.196817
Pt        -0.030660        0.045990        5.196817
Pt         1.931560        2.008210        5.196817
Pt        -3.955100        0.045990        5.196817
Pt        -1.992880        2.008210        5.196817
Pt        -0.030660        3.970430        5.196817
Pt        -0.030660       -1.916230        7.159047
Pt         1.931560        0.045990        7.159047
Pt        -1.992880        0.045990        7.159047
Pt        -0.030660        2.008210        7.159047
Pt        -0.030660       -7.802900       -2.652063
Pt         1.931560       -5.840670       -2.652063
Pt         3.893780       -3.878450       -2.652063
Pt         5.856000       -1.916230       -2.652063
Pt         7.818230        0.045990       -2.652063
Pt        -1.992880       -5.840670       -2.652063
Pt        -0.030660       -3.878450       -2.652063
Pt         1.931560       -1.916230       -2.652063
Pt         3.893780        0.045990       -2.652063
Pt         5.856000        2.008210       -2.652063
Pt        -3.955100       -3.878450       -2.652063
Pt        -1.992880       -1.916230       -2.652063
Pt        -0.030660        0.045990       -2.652063
Pt         1.931560        2.008210       -2.652063
Pt         3.893780        3.970430       -2.652063
Pt        -5.917320       -1.916230       -2.652063
Pt        -3.955100        0.045990       -2.652063
Pt        -1.992880        2.008210       -2.652063
Pt        -0.030660        3.970430       -2.652063
Pt         1.931560        5.932650       -2.652063
Pt        -7.879550        0.045990       -2.652063
Pt        -5.917320        2.008210       -2.652063
Pt        -3.955100        3.970430       -2.652063
Pt        -1.992880        5.932650       -2.652063
Pt        -0.030660        7.894880       -2.652063
Pt        -0.030660       -5.840670       -4.614283
Pt         1.931560       -3.878450       -4.614283
Pt         3.893780       -1.916230       -4.614283
Pt         5.856000        0.045990       -4.614283
Pt        -1.992880       -3.878450       -4.614283
Pt        -0.030660       -1.916230       -4.614283
Pt         1.931560        0.045990       -4.614283
Pt         3.893780        2.008210       -4.614283
Pt        -3.955100       -1.916230       -4.614283
Pt        -1.992880        0.045990       -4.614283
Pt        -0.030660        2.008210       -4.614283
Pt         1.931560        3.970430       -4.614283
Pt        -5.917320        0.045990       -4.614283
Pt        -3.955100        2.008210       -4.614283
Pt        -1.992880        3.970430       -4.614283
Pt        -0.030660        5.932650       -4.614283
Au         3.893780       -5.840670        3.234597
