430
Au Au 1 1
Au 3.92444 -17.66 0
Au 5.88666 -15.6978 0
Au 7.84889 -13.7355 0
Au 9.81111 -11.7733 0
Au 11.7733 -9.81111 0
Au 13.7355 -7.84889 0
Au 15.6978 -5.88666 0
Au 17.66 -3.92444 0
Au 7.10543e-15 -17.66 0
Au 17.66 -1.95399e-14 0
Au -3.92444 -17.66 0
Au 17.66 3.92444 0
Au -5.88666 -15.6978 0
Au 15.6978 5.88666 0
Au -7.84889 -13.7355 0
Au 13.7355 7.84889 0
Au -9.81111 -11.7733 0
Au 11.7733 9.81111 0
Au -11.7733 -9.81111 0
Au 9.81111 11.7733 0
Au -13.7355 -7.84889 0
Au 7.84889 13.7355 0
Au -15.6978 -5.88666 0
Au 5.88666 15.6978 0
Au -17.66 -3.92444 0
Au 3.92444 17.66 0
Au -17.66 -1.95399e-14 0
Au 7.10543e-15 17.66 0
Au -17.66 3.92444 0
Au -15.6978 5.88666 0
Au -13.7355 7.84889 0
Au -11.7733 9.81111 0
Au -9.81111 11.7733 0
Au -7.84889 13.7355 0
Au -5.88666 15.6978 0
Au -3.92444 17.66 0
Au 1.96222 -17.66 1.96222
Au 3.92444 -15.6978 1.96222
Au 5.88666 -13.7355 1.96222
Au 7.84889 -11.7733 1.96222
Au 9.81111 -9.81111 1.96222
Au 11.7733 -7.84889 1.96222
Au 13.7355 -5.88666 1.96222
Au 15.6978 -3.92444 1.96222
Au 17.66 -1.96222 1.96222
Au -1.96222 -17.66 1.96222
Au 17.66 1.96222 1.96222
Au -3.92444 -15.6978 1.96222
Au 15.6978 3.92444 1.96222
Au -5.88666 -13.7355 1.96222
Au 13.7355 5.88666 1.96222
Au -7.84889 -11.7733 1.96222
Au 11.7733 7.84889 1.96222
Au -9.81111 -9.81111 1.96222
Au 9.81111 9.81111 1.96222
Au -11.7733 -7.84889 1.96222
Au 7.84889 11.7733 1.96222
Au -13.7355 -5.88666 1.96222
Au 5.88666 13.7355 1.96222
Au -15.6978 -3.92444 1.96222
Au 3.92444 15.6978 1.96222
Au -17.66 -1.96222 1.96222
Au 1.96222 17.66 1.96222
Au -17.66 1.96222 1.96222
Au -15.6978 3.92444 1.96222
Au -13.7355 5.88666 1.96222
Au -11.7733 7.84889 1.96222
Au -9.81111 9.81111 1.96222
Au -7.84889 11.7733 1.96222
Au -5.88666 13.7355 1.96222
Au -3.92444 15.6978 1.96222
Au -1.96222 17.66 1.96222
Au 7.10543e-15 -17.66 3.92444
Au 1.96222 -15.6978 3.92444
Au 3.92444 -13.7355 3.92444
Au 5.88666 -11.7733 3.92444
Au 7.84889 -9.81111 3.92444
Au 9.81111 -7.84889 3.92444
Au 11.7733 -5.88666 3.92444
Au 13.7355 -3.92444 3.92444
Au 15.6978 -1.96222 3.92444
Au 17.66 -7.10543e-15 3.92444
Au -1.96222 -15.6978 3.92444
Au 15.6978 1.96222 3.92444
Au -3.92444 -13.7355 3.92444
Au 13.7355 3.92444 3.92444
Au -5.88666 -11.7733 3.92444
Au 11.7733 5.88666 3.92444
Au -7.84889 -9.81111 3.92444
Au 9.81111 7.84889 3.92444
Au -9.81111 -7.84889 3.92444
Au 7.84889 9.81111 3.92444
Au -11.7733 -5.88666 3.92444
Au 5.88666 11.7733 3.92444
Au -13.7355 -3.92444 3.92444
Au 3.92444 13.7355 3.92444
Au -15.6978 -1.96222 3.92444
Au 1.96222 15.6978 3.92444
Au -17.66 -7.10543e-15 3.92444
Au -15.6978 1.96222 3.92444
Au -13.7355 3.92444 3.92444
Au -11.7733 5.88666 3.92444
Au -9.81111 7.84889 3.92444
Au -7.84889 9.81111 3.92444
Au -5.88666 11.7733 3.92444
Au -3.92444 13.7355 3.92444
Au -1.96222 15.6978 3.92444
Au 7.10543e-15 17.66 3.92444
Au -2.66454e-15 -15.6978 5.88666
Au 1.96222 -13.7355 5.88666
Au 3.92444 -11.7733 5.88666
Au 5.88666 -9.81111 5.88666
Au 7.84889 -7.84889 5.88666
Au 9.81111 -5.88666 5.88666
Au 11.7733 -3.92444 5.88666
Au 13.7355 -1.96222 5.88666
Au 15.6978 -2.66454e-15 5.88666
Au -1.96222 -13.7355 5.88666
Au 13.7355 1.96222 5.88666
Au -3.92444 -11.7733 5.88666
Au 11.7733 3.92444 5.88666
Au -5.88666 -9.81111 5.88666
Au 9.81111 5.88666 5.88666
Au -7.84889 -7.84889 5.88666
Au 7.84889 7.84889 5.88666
Au -9.81111 -5.88666 5.88666
Au 5.88666 9.81111 5.88666
Au -11.7733 -3.92444 5.88666
Au 3.92444 11.7733 5.88666
Au -13.7355 -1.96222 5.88666
Au 1.96222 13.7355 5.88666
Au -15.6978 -2.66454e-15 5.88666
Au -13.7355 1.96222 5.88666
Au -11.7733 3.92444 5.88666
Au -9.81111 5.88666 5.88666
Au -7.84889 7.84889 5.88666
Au -5.88666 9.81111 5.88666
Au -3.92444 11.7733 5.88666
Au -1.96222 13.7355 5.88666
Au -2.66454e-15 15.6978 5.88666
Au -3.55271e-15 -13.7355 7.84889
Au 1.96222 -11.7733 7.84889
Au 3.92444 -9.81111 7.84889
Au 5.88666 -7.84889 7.84889
Au 7.84889 -5.88666 7.84889
Au 9.81111 -3.92444 7.84889
Au 11.7733 -1.96222 7.84889
Au 13.7355 6.21725e-15 7.84889
Au -1.96222 -11.7733 7.84889
Au 11.7733 1.96222 7.84889
Au -3.92444 -9.81111 7.84889
Au 9.81111 3.92444 7.84889
Au -5.88666 -7.84889 7.84889
Au 7.84889 5.88666 7.84889
Au -7.84889 -5.88666 7.84889
Au 5.88666 7.84889 7.84889
Au -9.81111 -3.92444 7.84889
Au 3.92444 9.81111 7.84889
Au -11.7733 -1.96222 7.84889
Au 1.96222 11.7733 7.84889
Au -13.7355 6.21725e-15 7.84889
Au -11.7733 1.96222 7.84889
Au -9.81111 3.92444 7.84889
Au -7.84889 5.88666 7.84889
Au -5.88666 7.84889 7.84889
Au -3.92444 9.81111 7.84889
Au -1.96222 11.7733 7.84889
Au -3.55271e-15 13.7355 7.84889
Au -3.55271e-15 -11.7733 9.81111
Au 1.96222 -9.81111 9.81111
Au 3.92444 -7.84889 9.81111
Au 5.88666 -5.88666 9.81111
Au 7.84889 -3.92444 9.81111
Au 9.81111 -1.96222 9.81111
Au 11.7733 -1.77636e-15 9.81111
Au -1.96222 -9.81111 9.81111
Au 9.81111 1.96222 9.81111
Au -3.92444 -7.84889 9.81111
Au 7.84889 3.92444 9.81111
Au -5.88666 -5.88666 9.81111
Au 5.88666 5.88666 9.81111
Au -7.84889 -3.92444 9.81111
Au 3.92444 7.84889 9.81111
Au -9.81111 -1.96222 9.81111
Au 1.96222 9.81111 9.81111
Au -11.7733 -1.77636e-15 9.81111
Au -9.81111 1.96222 9.81111
Au -7.84889 3.92444 9.81111
Au -5.88666 5.88666 9.81111
Au -3.92444 7.84889 9.81111
Au -1.96222 9.81111 9.81111
Au -3.55271e-15 11.7733 9.81111
Au 8.88178e-16 -9.81111 11.7733
Au 1.96222 -7.84889 11.7733
Au 3.92444 -5.88666 11.7733
Au 5.88666 -3.92444 11.7733
Au 7.84889 -1.96222 11.7733
Au 9.81111 -4.44089e-15 11.7733
Au -1.96222 -7.84889 11.7733
Au 7.84889 1.96222 11.7733
Au -3.92444 -5.88666 11.7733
Au 5.88666 3.92444 11.7733
Au -5.88666 -3.92444 11.7733
Au 3.92444 5.88666 11.7733
Au -7.84889 -1.96222 11.7733
Au 1.96222 7.84889 11.7733
Au -9.81111 -4.44089e-15 11.7733
Au -7.84889 1.96222 11.7733
Au -5.88666 3.92444 11.7733
Au -3.92444 5.88666 11.7733
Au -1.96222 7.84889 11.7733
Au 8.88178e-16 9.81111 11.7733
Au -4.44089e-16 -7.84889 13.7355
Au 1.96222 -5.88666 13.7355
Au 3.92444 -3.92444 13.7355
Au 5.88666 -1.96222 13.7355
Au 7.84889 -8.88178e-16 13.7355
Au -1.96222 -5.88666 13.7355
Au 5.88666 1.96222 13.7355
Au -3.92444 -3.92444 13.7355
Au 3.92444 3.92444 13.7355
Au -5.88666 -1.96222 13.7355
Au 1.96222 5.88666 13.7355
Au -7.84889 -4.44089e-16 13.7355
Au -5.88666 1.96222 13.7355
Au -3.92444 3.92444 13.7355
Au -1.96222 5.88666 13.7355
Au -8.88178e-16 7.84889 13.7355
Au 8.88178e-16 -5.88666 15.6978
Au 1.96222 -3.92444 15.6978
Au 3.92444 -1.96222 15.6978
Au 5.88666 0 15.6978
Au -1.96222 -3.92444 15.6978
Au 3.92444 1.96222 15.6978
Au -3.92444 -1.96222 15.6978
Au 1.96222 3.92444 15.6978
Au -5.88666 0 15.6978
Au -3.92444 1.96222 15.6978
Au -1.96222 3.92444 15.6978
Au 8.88178e-16 5.88666 15.6978
Au 0 -3.92444 17.66
Au 1.96222 -1.96222 17.66
Au 3.92444 0 17.66
Au -1.96222 -1.96222 17.66
Au 0 0 17.66
Au 1.96222 1.96222 17.66
Au -3.92444 0 17.66
Au -1.96222 1.96222 17.66
Au 0 3.92444 17.66
Au 1.96222 -17.66 -1.96222
Au 3.92444 -15.6978 -1.96222
Au 5.88666 -13.7355 -1.96222
Au 7.84889 -11.7733 -1.96222
Au 9.81111 -9.81111 -1.96222
Au 11.7733 -7.84889 -1.96222
Au 13.7355 -5.88666 -1.96222
Au 15.6978 -3.92444 -1.96222
Au 17.66 -1.96222 -1.96222
Au -1.96222 -17.66 -1.96222
Au 17.66 1.96222 -1.96222
Au -3.92444 -15.6978 -1.96222
Au 15.6978 3.92444 -1.96222
Au -5.88666 -13.7355 -1.96222
Au 13.7355 5.88666 -1.96222
Au -7.84889 -11.7733 -1.96222
Au 11.7733 7.84889 -1.96222
Au -9.81111 -9.81111 -1.96222
Au 9.81111 9.81111 -1.96222
Au -11.7733 -7.84889 -1.96222
Au 7.84889 11.7733 -1.96222
Au -13.7355 -5.88666 -1.96222
Au 5.88666 13.7355 -1.96222
Au -15.6978 -3.92444 -1.96222
Au 3.92444 15.6978 -1.96222
Au -17.66 -1.96222 -1.96222
Au 1.96222 17.66 -1.96222
Au -17.66 1.96222 -1.96222
Au -15.6978 3.92444 -1.96222
Au -13.7355 5.88666 -1.96222
Au -11.7733 7.84889 -1.96222
Au -9.81111 9.81111 -1.96222
Au -7.84889 11.7733 -1.96222
Au -5.88666 13.7355 -1.96222
Au -3.92444 15.6978 -1.96222
Au -1.96222 17.66 -1.96222
Au 7.10543e-15 -17.66 -3.92444
Au 1.96222 -15.6978 -3.92444
Au 3.92444 -13.7355 -3.92444
Au 5.88666 -11.7733 -3.92444
Au 7.84889 -9.81111 -3.92444
Au 9.81111 -7.84889 -3.92444
Au 11.7733 -5.88666 -3.92444
Au 13.7355 -3.92444 -3.92444
Au 15.6978 -1.96222 -3.92444
Au 17.66 -7.10543e-15 -3.92444
Au -1.96222 -15.6978 -3.92444
Au 15.6978 1.96222 -3.92444
Au -3.92444 -13.7355 -3.92444
Au 13.7355 3.92444 -3.92444
Au -5.88666 -11.7733 -3.92444
Au 11.7733 5.88666 -3.92444
Au -7.84889 -9.81111 -3.92444
Au 9.81111 7.84889 -3.92444
Au -9.81111 -7.84889 -3.92444
Au 7.84889 9.81111 -3.92444
Au -11.7733 -5.88666 -3.92444
Au 5.88666 11.7733 -3.92444
Au -13.7355 -3.92444 -3.92444
Au 3.92444 13.7355 -3.92444
Au -15.6978 -1.96222 -3.92444
Au 1.96222 15.6978 -3.92444
Au -17.66 -7.10543e-15 -3.92444
Au -15.6978 1.96222 -3.92444
Au -13.7355 3.92444 -3.92444
Au -11.7733 5.88666 -3.92444
Au -9.81111 7.84889 -3.92444
Au -7.84889 9.81111 -3.92444
Au -5.88666 11.7733 -3.92444
Au -3.92444 13.7355 -3.92444
Au -1.96222 15.6978 -3.92444
Au 7.10543e-15 17.66 -3.92444
Au -2.66454e-15 -15.6978 -5.88666
Au 1.96222 -13.7355 -5.88666
Au 3.92444 -11.7733 -5.88666
Au 5.88666 -9.81111 -5.88666
Au 7.84889 -7.84889 -5.88666
Au 9.81111 -5.88666 -5.88666
Au 11.7733 -3.92444 -5.88666
Au 13.7355 -1.96222 -5.88666
Au 15.6978 -2.66454e-15 -5.88666
Au -1.96222 -13.7355 -5.88666
Au 13.7355 1.96222 -5.88666
Au -3.92444 -11.7733 -5.88666
Au 11.7733 3.92444 -5.88666
Au -5.88666 -9.81111 -5.88666
Au 9.81111 5.88666 -5.88666
Au -7.84889 -7.84889 -5.88666
Au 7.84889 7.84889 -5.88666
Au -9.81111 -5.88666 -5.88666
Au 5.88666 9.81111 -5.88666
Au -11.7733 -3.92444 -5.88666
Au 3.92444 11.7733 -5.88666
Au -13.7355 -1.96222 -5.88666
Au 1.96222 13.7355 -5.88666
Au -15.6978 -2.66454e-15 -5.88666
Au -13.7355 1.96222 -5.88666
Au -11.7733 3.92444 -5.88666
Au -9.81111 5.88666 -5.88666
Au -7.84889 7.84889 -5.88666
Au -5.88666 9.81111 -5.88666
Au -3.92444 11.7733 -5.88666
Au -1.96222 13.7355 -5.88666
Au -2.66454e-15 15.6978 -5.88666
Au -3.55271e-15 -13.7355 -7.84889
Au 1.96222 -11.7733 -7.84889
Au 3.92444 -9.81111 -7.84889
Au 5.88666 -7.84889 -7.84889
Au 7.84889 -5.88666 -7.84889
Au 9.81111 -3.92444 -7.84889
Au 11.7733 -1.96222 -7.84889
Au 13.7355 6.21725e-15 -7.84889
Au -1.96222 -11.7733 -7.84889
Au 11.7733 1.96222 -7.84889
Au -3.92444 -9.81111 -7.84889
Au 9.81111 3.92444 -7.84889
Au -5.88666 -7.84889 -7.84889
Au 7.84889 5.88666 -7.84889
Au -7.84889 -5.88666 -7.84889
Au 5.88666 7.84889 -7.84889
Au -9.81111 -3.92444 -7.84889
Au 3.92444 9.81111 -7.84889
Au -11.7733 -1.96222 -7.84889
Au 1.96222 11.7733 -7.84889
Au -13.7355 6.21725e-15 -7.84889
Au -11.7733 1.96222 -7.84889
Au -9.81111 3.92444 -7.84889
Au -7.84889 5.88666 -7.84889
Au -5.88666 7.84889 -7.84889
Au -3.92444 9.81111 -7.84889
Au -1.96222 11.7733 -7.84889
Au -3.55271e-15 13.7355 -7.84889
Au -3.55271e-15 -11.7733 -9.81111
Au 1.96222 -9.81111 -9.81111
Au 3.92444 -7.84889 -9.81111
Au 5.88666 -5.88666 -9.81111
Au 7.84889 -3.92444 -9.81111
Au 9.81111 -1.96222 -9.81111
Au 11.7733 -1.77636e-15 -9.81111
Au -1.96222 -9.81111 -9.81111
Au -3.55271e-15 -7.84889 -9.81111
Au 1.96222 -5.88666 -9.81111
Au 3.92444 -3.92444 -9.81111
Au 5.88666 -1.96222 -9.81111
Au 7.84889 0 -9.81111
Au 9.81111 1.96222 -9.81111
Au -3.92444 -7.84889 -9.81111
Au -1.96222 -5.88666 -9.81111
Au -3.77476e-15 -3.92444 -9.81111
Au 1.96222 -1.96222 -9.81111
Au 3.92444 -6.66134e-16 -9.81111
Au 5.88666 1.96222 -9.81111
Au 7.84889 3.92444 -9.81111
Au -5.88666 -5.88666 -9.81111
Au -3.92444 -3.92444 -9.81111
Au -1.96222 -1.96222 -9.81111
Au -3.76822e-15 -1.25607e-15 -9.81111
Au 1.96222 1.96222 -9.81111
Au 3.92444 3.92444 -9.81111
Au 5.88666 5.88666 -9.81111
Au -7.84889 -3.92444 -9.81111
Au -5.88666 -1.96222 -9.81111
Au -3.92444 -6.66134e-16 -9.81111
Au -1.96222 1.96222 -9.81111
Au -3.77476e-15 3.92444 -9.81111
Au 1.96222 5.88666 -9.81111
Au 3.92444 7.84889 -9.81111
Au -9.81111 -1.96222 -9.81111
Au -7.84889 0 -9.81111
Au -5.88666 1.96222 -9.81111
Au -3.92444 3.92444 -9.81111
Au -1.96222 5.88666 -9.81111
Au -3.55271e-15 7.84889 -9.81111
Au 1.96222 9.81111 -9.81111
Au -11.7733 -1.77636e-15 -9.81111
Au -9.81111 1.96222 -9.81111
Au -7.84889 3.92444 -9.81111
Au -5.88666 5.88666 -9.81111
Au -3.92444 7.84889 -9.81111
Au -1.96222 9.81111 -9.81111
Au -3.55271e-15 11.7733 -9.81111
