128
Pt Pt 1 1
Pt 1.96222 -7.84889 0
Pt 3.92444 -5.88666 0
Pt 5.88666 -3.92444 0
Pt 7.84889 -1.96222 0
Pt -1.96222 -7.84889 0
Pt 0 -5.88666 0
Pt 1.96222 -3.92444 0
Pt 3.92444 -1.96222 0
Pt 5.88666 -4.44089e-15 0
Pt 7.84889 1.96222 0
Pt -3.92444 -5.88666 0
Pt -1.96222 -3.92444 0
Pt 6.66134e-16 -1.96222 0
Pt 1.96222 -4.996e-15 0
Pt 3.92444 1.96222 0
Pt 5.88666 3.92444 0
Pt -5.88666 -3.92444 0
Pt -3.92444 -1.96222 0
Pt -1.96222 -4.996e-15 0
Pt 6.66134e-16 1.96222 0
Pt 1.96222 3.92444 0
Pt 3.92444 5.88666 0
Pt -7.84889 -1.96222 0
Pt -5.88666 -5.32907e-15 0
Pt -3.92444 1.96222 0
Pt -1.96222 3.92444 0
Pt 8.88178e-16 5.88666 0
Pt 1.96222 7.84889 0
Pt -7.84889 1.96222 0
Pt -5.88666 3.92444 0
Pt -3.92444 5.88666 0
Pt -1.96222 7.84889 0
Pt -4.44089e-16 -7.84889 1.96222
Pt 1.96222 -5.88666 1.96222
Pt 3.92444 -3.92444 1.96222
Pt 5.88666 -1.96222 1.96222
Pt 7.84889 -8.88178e-16 1.96222
Pt -1.96222 -5.88666 1.96222
Pt -6.66134e-16 -3.92444 1.96222
Pt 1.96222 -1.96222 1.96222
Pt 3.92444 -8.88178e-16 1.96222
Pt 5.88666 1.96222 1.96222
Pt -3.92444 -3.92444 1.96222
Pt -1.96222 -1.96222 1.96222
Pt -6.28037e-16 -6.28037e-16 1.96222
Pt 1.96222 1.96222 1.96222
Pt 3.92444 3.92444 1.96222
Pt -5.88666 -1.96222 1.96222
Pt -3.92444 -1.11022e-15 1.96222
Pt -1.96222 1.96222 1.96222
Pt -4.44089e-16 3.92444 1.96222
Pt 1.96222 5.88666 1.96222
Pt -7.84889 -4.44089e-16 1.96222
Pt -5.88666 1.96222 1.96222
Pt -3.92444 3.92444 1.96222
Pt -1.96222 5.88666 1.96222
Pt -8.88178e-16 7.84889 1.96222
Pt 8.88178e-16 -5.88666 3.92444
Pt 1.96222 -3.92444 3.92444
Pt 3.92444 -1.96222 3.92444
Pt 5.88666 0 3.92444
Pt -1.96222 -3.92444 3.92444
Pt 1.22125e-15 -1.96222 3.92444
Pt 1.96222 3.33067e-16 3.92444
Pt 3.92444 1.96222 3.92444
Pt -3.92444 -1.96222 3.92444
Pt -1.96222 3.33067e-16 3.92444
Pt 1.22125e-15 1.96222 3.92444
Pt 1.96222 3.92444 3.92444
Pt -5.88666 0 3.92444
Pt -3.92444 1.96222 3.92444
Pt -1.96222 3.92444 3.92444
Pt 8.88178e-16 5.88666 3.92444
Pt 0 -3.92444 5.88666
Pt 1.96222 -1.96222 5.88666
Pt 3.92444 0 5.88666
Pt -1.96222 -1.96222 5.88666
Pt 0 0 5.88666
Pt 1.96222 1.96222 5.88666
Pt -3.92444 0 5.88666
Pt -1.96222 1.96222 5.88666
Pt 0 3.92444 5.88666
Pt 0 -1.96222 7.84889
Pt 1.96222 0 7.84889
Pt -1.96222 0 7.84889
Pt 0 1.96222 7.84889
Pt -4.44089e-16 -7.84889 -1.96222
Pt 1.96222 -5.88666 -1.96222
Pt 3.92444 -3.92444 -1.96222
Pt 5.88666 -1.96222 -1.96222
Pt 7.84889 -8.88178e-16 -1.96222
Pt -1.96222 -5.88666 -1.96222
Pt -6.66134e-16 -3.92444 -1.96222
Pt 1.96222 -1.96222 -1.96222
Pt 3.92444 -8.88178e-16 -1.96222
Pt 5.88666 1.96222 -1.96222
Pt -3.92444 -3.92444 -1.96222
Pt -1.96222 -1.96222 -1.96222
Pt -6.28037e-16 -6.28037e-16 -1.96222
Pt 1.96222 1.96222 -1.96222
Pt 3.92444 3.92444 -1.96222
Pt -5.88666 -1.96222 -1.96222
Pt -3.92444 -1.11022e-15 -1.96222
Pt -1.96222 1.96222 -1.96222
Pt -4.44089e-16 3.92444 -1.96222
Pt 1.96222 5.88666 -1.96222
Pt -7.84889 -4.44089e-16 -1.96222
Pt -5.88666 1.96222 -1.96222
Pt -3.92444 3.92444 -1.96222
Pt -1.96222 5.88666 -1.96222
Pt -8.88178e-16 7.84889 -1.96222
Pt 8.88178e-16 -5.88666 -3.92444
Pt 1.96222 -3.92444 -3.92444
Pt 3.92444 -1.96222 -3.92444
Pt 5.88666 0 -3.92444
Pt -1.96222 -3.92444 -3.92444
Pt 1.22125e-15 -1.96222 -3.92444
Pt 1.96222 3.33067e-16 -3.92444
Pt 3.92444 1.96222 -3.92444
Pt -3.92444 -1.96222 -3.92444
Pt -1.96222 3.33067e-16 -3.92444
Pt 1.22125e-15 1.96222 -3.92444
Pt 1.96222 3.92444 -3.92444
Pt -5.88666 0 -3.92444
Pt -3.92444 1.96222 -3.92444
Pt -1.96222 3.92444 -3.92444
Pt 8.88178e-16 5.88666 -3.92444
Au 3.92444 -3.92444 5.88666
